<?xml version="1.0" encoding="UTF-8"?>

<!-- generated on Fri 15 Oct 2021 03:08:28 PM CEST by Eclipse SUMO netedit Version v1_7_0+1095-7111e26d53
<configuration xmlns:xsi="http://www.w3.org/2001/XMLSchema-instance" xsi:noNamespaceSchemaLocation="http://sumo.dlr.de/xsd/netconvertConfiguration.xsd">

    <input>
        <sumo-net-file value="network.net.xml"/>
    </input>

    <output>
        <output-file value="network.net.xml"/>
    </output>

    <processing>
        <geometry.min-radius.fix.railways value="false"/>
        <geometry.max-grade.fix value="false"/>
        <offset.disable-normalization value="true"/>
        <lefthand value="false"/>
    </processing>

    <junctions>
        <no-turnarounds value="true"/>
        <junctions.corner-detail value="5"/>
        <junctions.limit-turn-speed value="5.5"/>
        <rectangular-lane-cut value="false"/>
    </junctions>

    <pedestrian>
        <walkingareas value="false"/>
    </pedestrian>

    <netedit>
        <route-files value="/home/msa/Documents/SUMO/SUMO_AAU/course2021/part2_intersections/exercise1/demands.rou.xml"/>
    </netedit>

    <report>
        <aggregate-warnings value="5"/>
    </report>

</configuration>
-->

<routes xmlns:xsi="http://www.w3.org/2001/XMLSchema-instance" xsi:noNamespaceSchemaLocation="http://sumo.dlr.de/xsd/routes_file.xsd">
    <route edges="fromA1 fromA11 toA22 toA2" id="A1forward"/>
    <route edges="fromA1 fromA11 toB1" id="A1left"/>
    <route edges="fromA1 fromA11 toB22 toB2" id="A1right"/>
    <route edges="fromA2 fromA22 toA11 toA1" id="A2forward"/>
    <route edges="fromA2 fromA22 toB22 toB2" id="A2left"/>
    <route edges="fromA2 fromA22 toB1" id="A2right"/>
    <route edges="fromB1 toB22 toB2" id="B1forward"/>
    <route edges="fromB1 toA22 toA2" id="B1left"/>
    <route edges="fromB1 toA11 toA1" id="B1right"/>
    <route edges="fromB2 fromB22 toB1" id="B2forward"/>
    <route edges="fromB2 fromB22 toA11 toA1" id="B2left"/>
    <route edges="fromB2 fromB22 toA22 toA2" id="B2right"/>

    <vTypeDistribution id="dvehicles">
        <vType id="type1" accel="1.8" length="4" maxSpeed="50" color="1,1,0" probability="0.3"/>
        <vType id="type2" accel="2.5" length="5" maxSpeed="60" color="1,0,1" probability="0.5"/>
        <vType id="type3" accel="1.0" length="6" maxSpeed="40" color="0,1,1" probability="0.2"/>
    </vTypeDistribution>
    
    <flow id="fA1left" type="dvehicles" begin="0" end= "3600" vehsPerHour="175" route="A1left"/>
    <flow id="fA1forward" type="dvehicles" begin="0" end= "3600" vehsPerHour="725" route="A1forward"/>
    <flow id="fA1right" type="dvehicles" begin="0" end= "3600" vehsPerHour="106" route="A1right"/>

    <flow id="fB1left" type="dvehicles" begin="0" end= "3600" vehsPerHour="100" route="B1left"/>
    <flow id="fB1forward" type="dvehicles" begin="0" end= "3600" vehsPerHour="475" route="B1forward"/>
    <flow id="fB1right" type="dvehicles" begin="0" end= "3600" vehsPerHour="125" route="B1right"/>

    <flow id="fA2left" type="dvehicles" begin="0" end= "3600" vehsPerHour="17" route="A2left"/>
    <flow id="fA2forward" type="dvehicles" begin="0" end= "3600" vehsPerHour="497" route="A2forward"/>
    <flow id="fA2right" type="dvehicles" begin="0" end= "3600" vehsPerHour="253" route="A2right"/>

    <flow id="fB2left" type="dvehicles" begin="0" end= "3600" vehsPerHour="70" route="B2left"/>
    <flow id="fB2forward" type="dvehicles" begin="0" end= "3600" vehsPerHour="330" route="B2forward"/>
    <flow id="fB2right" type="dvehicles" begin="0" end= "3600" vehsPerHour="30" route="B2right"/>
</routes>
