<edges>
    <edge from="E" to="C" id="EC" type="1L13.3"/>
    <edge from="W" to="C" id="WC" type="1L13.3"/>
    <edge from="N" to="C" id="NC" type="1L13.3"/>
    <edge from="S" to="C" id="SC" type="1L13.3"/>

    <edge from="C" to="E" id="CE" type="1L13.3"/>
    <edge from="C" to="W" id="CW" type="1L13.3"/>
    <edge from="C" to="N" id="CN" type="1L13.3"/>
    <edge from="C" to="S" id="CS" type="1L13.3"/>
</edges>

