<?xml version="1.0" encoding="UTF-8"?>

<!-- generated on Wed Oct  6 13:22:17 2021 by Eclipse SUMO netconvert Version v1_7_0+1095-7111e26d53
<configuration xmlns:xsi="http://www.w3.org/2001/XMLSchema-instance" xsi:noNamespaceSchemaLocation="http://sumo.dlr.de/xsd/netconvertConfiguration.xsd">

    <input>
        <node-files value="nodes.nod.xml"/>
        <edge-files value="edges.edg.xml"/>
        <connection-files value="connections.con.xml"/>
        <type-files value="types.type.xml"/>
    </input>

    <output>
        <output-file value="network.net.xml"/>
    </output>

    <report>
        <aggregate-warnings value="5"/>
    </report>

</configuration>
-->

<net version="1.6" junctionCornerDetail="5" limitTurnSpeed="5.50" xmlns:xsi="http://www.w3.org/2001/XMLSchema-instance" xsi:noNamespaceSchemaLocation="http://sumo.dlr.de/xsd/net_file.xsd">

    <location netOffset="200.00,200.00" convBoundary="0.00,0.00,400.00,400.00" origBoundary="-200.00,-200.00,200.00,200.00" projParameter="!"/>

    <type id="1L13.3" numLanes="1" speed="13.30"/>

    <edge id=":C_0" function="internal">
        <lane id=":C_0_0" index="0" speed="6.51" length="9.03" shape="198.40,207.20 198.05,204.75 197.00,203.00 195.25,201.95 192.80,201.60"/>
    </edge>
    <edge id=":C_1" function="internal">
        <lane id=":C_1_0" index="0" speed="13.30" length="14.40" shape="198.40,207.20 198.40,192.80"/>
    </edge>
    <edge id=":C_2" function="internal">
        <lane id=":C_2_0" index="0" speed="8.00" length="14.19" shape="198.40,207.20 198.95,203.35 200.60,200.60 203.35,198.95 207.20,198.40"/>
    </edge>
    <edge id=":C_3" function="internal">
        <lane id=":C_3_0" index="0" speed="6.51" length="9.03" shape="207.20,201.60 204.75,201.95 203.00,203.00 201.95,204.75 201.60,207.20"/>
    </edge>
    <edge id=":C_4" function="internal">
        <lane id=":C_4_0" index="0" speed="13.30" length="14.40" shape="207.20,201.60 192.80,201.60"/>
    </edge>
    <edge id=":C_5" function="internal">
        <lane id=":C_5_0" index="0" speed="8.00" length="14.19" shape="207.20,201.60 203.35,201.05 200.60,199.40 198.95,196.65 198.40,192.80"/>
    </edge>
    <edge id=":C_6" function="internal">
        <lane id=":C_6_0" index="0" speed="6.51" length="9.03" shape="201.60,192.80 201.95,195.25 203.00,197.00 204.75,198.05 207.20,198.40"/>
    </edge>
    <edge id=":C_7" function="internal">
        <lane id=":C_7_0" index="0" speed="13.30" length="14.40" shape="201.60,192.80 201.60,207.20"/>
    </edge>
    <edge id=":C_8" function="internal">
        <lane id=":C_8_0" index="0" speed="8.00" length="14.19" shape="201.60,192.80 201.05,196.65 199.40,199.40 196.65,201.05 192.80,201.60"/>
    </edge>
    <edge id=":C_9" function="internal">
        <lane id=":C_9_0" index="0" speed="6.51" length="9.03" shape="192.80,198.40 195.25,198.05 197.00,197.00 198.05,195.25 198.40,192.80"/>
    </edge>
    <edge id=":C_10" function="internal">
        <lane id=":C_10_0" index="0" speed="13.30" length="14.40" shape="192.80,198.40 207.20,198.40"/>
    </edge>
    <edge id=":C_11" function="internal">
        <lane id=":C_11_0" index="0" speed="8.00" length="14.19" shape="192.80,198.40 196.65,198.95 199.40,200.60 201.05,203.35 201.60,207.20"/>
    </edge>
    <edge id=":E_0" function="internal">
        <lane id=":E_0_0" index="0" speed="3.65" length="4.67" shape="0.00,201.60 -1.20,200.80 -1.60,200.00 -1.20,199.20 0.00,198.40"/>
    </edge>
    <edge id=":N_0" function="internal">
        <lane id=":N_0_0" index="0" speed="3.65" length="4.67" shape="201.60,400.00 200.80,401.20 200.00,401.60 199.20,401.20 198.40,400.00"/>
    </edge>
    <edge id=":S_0" function="internal">
        <lane id=":S_0_0" index="0" speed="3.65" length="4.67" shape="198.40,0.00 199.20,-1.20 200.00,-1.60 200.80,-1.20 201.60,0.00"/>
    </edge>
    <edge id=":W_0" function="internal">
        <lane id=":W_0_0" index="0" speed="3.65" length="4.67" shape="400.00,198.40 401.20,199.20 401.60,200.00 401.20,200.80 400.00,201.60"/>
    </edge>

    <edge id="CE" from="C" to="E" priority="-1" type="1L13.3">
        <lane id="CE_0" index="0" speed="13.30" length="192.80" shape="192.80,201.60 0.00,201.60"/>
    </edge>
    <edge id="CN" from="C" to="N" priority="-1" type="1L13.3">
        <lane id="CN_0" index="0" speed="13.30" length="192.80" shape="201.60,207.20 201.60,400.00"/>
    </edge>
    <edge id="CS" from="C" to="S" priority="-1" type="1L13.3">
        <lane id="CS_0" index="0" speed="13.30" length="192.80" shape="198.40,192.80 198.40,0.00"/>
    </edge>
    <edge id="CW" from="C" to="W" priority="-1" type="1L13.3">
        <lane id="CW_0" index="0" speed="13.30" length="192.80" shape="207.20,198.40 400.00,198.40"/>
    </edge>
    <edge id="EC" from="E" to="C" priority="-1" type="1L13.3">
        <lane id="EC_0" index="0" speed="13.30" length="192.80" shape="0.00,198.40 192.80,198.40"/>
    </edge>
    <edge id="NC" from="N" to="C" priority="-1" type="1L13.3">
        <lane id="NC_0" index="0" speed="13.30" length="192.80" shape="198.40,400.00 198.40,207.20"/>
    </edge>
    <edge id="SC" from="S" to="C" priority="-1" type="1L13.3">
        <lane id="SC_0" index="0" speed="13.30" length="192.80" shape="201.60,0.00 201.60,192.80"/>
    </edge>
    <edge id="WC" from="W" to="C" priority="-1" type="1L13.3">
        <lane id="WC_0" index="0" speed="13.30" length="192.80" shape="400.00,201.60 207.20,201.60"/>
    </edge>

    <junction id="C" type="right_before_left" x="200.00" y="200.00" incLanes="NC_0 WC_0 SC_0 EC_0" intLanes=":C_0_0 :C_1_0 :C_2_0 :C_3_0 :C_4_0 :C_5_0 :C_6_0 :C_7_0 :C_8_0 :C_9_0 :C_10_0 :C_11_0" shape="196.80,207.20 203.20,207.20 203.64,204.98 204.20,204.20 204.98,203.64 205.98,203.31 207.20,203.20 207.20,196.80 204.98,196.36 204.20,195.80 203.64,195.02 203.31,194.02 203.20,192.80 196.80,192.80 196.36,195.02 195.80,195.80 195.02,196.36 194.02,196.69 192.80,196.80 192.80,203.20 195.02,203.64 195.80,204.20 196.36,204.98 196.69,205.98">
        <request index="0"  response="000000000000" foes="000100010000" cont="0"/>
        <request index="1"  response="111000000000" foes="111100110000" cont="0"/>
        <request index="2"  response="110011000000" foes="110011110000" cont="0"/>
        <request index="3"  response="000000000000" foes="100010000000" cont="0"/>
        <request index="4"  response="000000000111" foes="100110000111" cont="0"/>
        <request index="5"  response="011000000110" foes="011110000110" cont="0"/>
        <request index="6"  response="000000000000" foes="010000000100" cont="0"/>
        <request index="7"  response="000000111000" foes="110000111100" cont="0"/>
        <request index="8"  response="000000110011" foes="110000110011" cont="0"/>
        <request index="9"  response="000000000000" foes="000000100010" cont="0"/>
        <request index="10" response="000111000000" foes="000111100110" cont="0"/>
        <request index="11" response="000110011000" foes="000110011110" cont="0"/>
    </junction>
    <junction id="E" type="priority" x="0.00" y="200.00" incLanes="CE_0" intLanes=":E_0_0" shape="0.00,200.00 0.00,203.20 0.00,200.00">
        <request index="0" response="0" foes="0" cont="0"/>
    </junction>
    <junction id="N" type="priority" x="200.00" y="400.00" incLanes="CN_0" intLanes=":N_0_0" shape="200.00,400.00 203.20,400.00 200.00,400.00">
        <request index="0" response="0" foes="0" cont="0"/>
    </junction>
    <junction id="S" type="priority" x="200.00" y="0.00" incLanes="CS_0" intLanes=":S_0_0" shape="200.00,0.00 196.80,0.00 200.00,0.00">
        <request index="0" response="0" foes="0" cont="0"/>
    </junction>
    <junction id="W" type="priority" x="400.00" y="200.00" incLanes="CW_0" intLanes=":W_0_0" shape="400.00,200.00 400.00,196.80 400.00,200.00">
        <request index="0" response="0" foes="0" cont="0"/>
    </junction>

    <connection from="CE" to="EC" fromLane="0" toLane="0" via=":E_0_0" dir="t" state="M"/>
    <connection from="CN" to="NC" fromLane="0" toLane="0" via=":N_0_0" dir="t" state="M"/>
    <connection from="CS" to="SC" fromLane="0" toLane="0" via=":S_0_0" dir="t" state="M"/>
    <connection from="CW" to="WC" fromLane="0" toLane="0" via=":W_0_0" dir="t" state="M"/>
    <connection from="EC" to="CS" fromLane="0" toLane="0" via=":C_9_0" dir="r" state="="/>
    <connection from="EC" to="CW" fromLane="0" toLane="0" via=":C_10_0" dir="s" state="="/>
    <connection from="EC" to="CN" fromLane="0" toLane="0" via=":C_11_0" dir="l" state="="/>
    <connection from="NC" to="CE" fromLane="0" toLane="0" via=":C_0_0" dir="r" state="="/>
    <connection from="NC" to="CS" fromLane="0" toLane="0" via=":C_1_0" dir="s" state="="/>
    <connection from="NC" to="CW" fromLane="0" toLane="0" via=":C_2_0" dir="l" state="="/>
    <connection from="SC" to="CW" fromLane="0" toLane="0" via=":C_6_0" dir="r" state="="/>
    <connection from="SC" to="CN" fromLane="0" toLane="0" via=":C_7_0" dir="s" state="="/>
    <connection from="SC" to="CE" fromLane="0" toLane="0" via=":C_8_0" dir="l" state="="/>
    <connection from="WC" to="CN" fromLane="0" toLane="0" via=":C_3_0" dir="r" state="="/>
    <connection from="WC" to="CE" fromLane="0" toLane="0" via=":C_4_0" dir="s" state="="/>
    <connection from="WC" to="CS" fromLane="0" toLane="0" via=":C_5_0" dir="l" state="="/>

    <connection from=":C_0" to="CE" fromLane="0" toLane="0" dir="r" state="M"/>
    <connection from=":C_1" to="CS" fromLane="0" toLane="0" dir="s" state="M"/>
    <connection from=":C_2" to="CW" fromLane="0" toLane="0" dir="l" state="M"/>
    <connection from=":C_3" to="CN" fromLane="0" toLane="0" dir="r" state="M"/>
    <connection from=":C_4" to="CE" fromLane="0" toLane="0" dir="s" state="M"/>
    <connection from=":C_5" to="CS" fromLane="0" toLane="0" dir="l" state="M"/>
    <connection from=":C_6" to="CW" fromLane="0" toLane="0" dir="r" state="M"/>
    <connection from=":C_7" to="CN" fromLane="0" toLane="0" dir="s" state="M"/>
    <connection from=":C_8" to="CE" fromLane="0" toLane="0" dir="l" state="M"/>
    <connection from=":C_9" to="CS" fromLane="0" toLane="0" dir="r" state="M"/>
    <connection from=":C_10" to="CW" fromLane="0" toLane="0" dir="s" state="M"/>
    <connection from=":C_11" to="CN" fromLane="0" toLane="0" dir="l" state="M"/>
    <connection from=":E_0" to="EC" fromLane="0" toLane="0" dir="t" state="M"/>
    <connection from=":N_0" to="NC" fromLane="0" toLane="0" dir="t" state="M"/>
    <connection from=":S_0" to="SC" fromLane="0" toLane="0" dir="t" state="M"/>
    <connection from=":W_0" to="WC" fromLane="0" toLane="0" dir="t" state="M"/>

</net>
