<nodes>
    <node id="C" x="0.0" y="0.0"/>
    <node id="E" x="-200.0" y="0.0"/>
    <node id="W" x="200.0" y="0.0"/>
    <node id="N" x="0.0" y="200.0"/>
    <node id="S" x="0.0" y="-200.0"/>
</nodes>
