<?xml version="1.0" encoding="UTF-8"?>

<!-- generated on Wed 07 Jul 2021 01:00:05 PM CEST by Eclipse SUMO netedit Version v1_7_0+1095-7111e26d53
<configuration xmlns:xsi="http://www.w3.org/2001/XMLSchema-instance" xsi:noNamespaceSchemaLocation="http://sumo.dlr.de/xsd/netconvertConfiguration.xsd">

    <input>
        <sumo-net-file value="examples/cross/sumo/networks/cross6_LFR_exits.net.xml"/>
    </input>

    <output>
        <output-file value="examples/cross/sumo/networks/cross6_LFR_exits.net.xml"/>
    </output>

    <processing>
        <geometry.min-radius.fix.railways value="false"/>
        <geometry.max-grade.fix value="false"/>
        <offset.disable-normalization value="true"/>
        <lefthand value="false"/>
    </processing>

    <junctions>
        <no-internal-links value="false"/>
        <no-turnarounds value="true"/>
        <junctions.corner-detail value="5"/>
        <junctions.limit-turn-speed value="5.5"/>
        <rectangular-lane-cut value="false"/>
    </junctions>

    <pedestrian>
        <walkingareas value="true"/>
    </pedestrian>

    <report>
        <aggregate-warnings value="5"/>
    </report>

</configuration>
-->

<net version="1.6" junctionCornerDetail="5" walkingareas="true" limitTurnSpeed="5.50" xmlns:xsi="http://www.w3.org/2001/XMLSchema-instance" xsi:noNamespaceSchemaLocation="http://sumo.dlr.de/xsd/net_file.xsd">

    <location netOffset="0.00,0.00" convBoundary="-200.00,-200.00,200.00,200.00" origBoundary="-10000000000.00,-10000000000.00,10000000000.00,10000000000.00" projParameter="!"/>

    <edge id=":C_0" function="internal">
        <lane id=":C_0_0" index="0" allow="bicycle" speed="7.86" length="9.89" width="2.00" shape="-10.60,18.60 -11.10,14.49 -12.60,11.55 -14.60,10.14"/>
    </edge>
    <edge id=":C_1" function="internal">
        <lane id=":C_1_0" index="0" allow="bicycle" speed="13.89" length="34.23" width="2.00" shape="-10.60,18.60 -9.20,-15.60"/>
    </edge>
    <edge id=":C_2" function="internal">
        <lane id=":C_2_0" index="0" disallow="pedestrian bicycle" speed="10.10" length="8.61" shape="-8.00,23.60 -8.00,18.60 -8.45,15.02"/>
    </edge>
    <edge id=":C_3" function="internal">
        <lane id=":C_3_0" index="0" disallow="pedestrian bicycle" speed="13.89" length="39.25" shape="-4.80,23.60 -4.80,18.60 -6.60,-15.60"/>
    </edge>
    <edge id=":C_4" function="internal">
        <lane id=":C_4_0" index="0" disallow="pedestrian bicycle" speed="12.62" length="19.06" shape="-1.60,23.60 -1.60,18.60 -0.53,8.89 1.28,5.00"/>
    </edge>
    <edge id=":C_20" function="internal">
        <lane id=":C_20_0" index="0" allow="bicycle" speed="7.86" length="4.16" width="2.00" shape="-14.60,10.14 -15.10,9.79 -18.60,9.20"/>
    </edge>
    <edge id=":C_21" function="internal">
        <lane id=":C_21_0" index="0" disallow="pedestrian bicycle" speed="10.10" length="14.63" shape="-8.45,15.02 -8.66,13.35 -10.65,9.60 -13.96,7.35 -18.60,6.60"/>
    </edge>
    <edge id=":C_22" function="internal">
        <lane id=":C_22_0" index="0" disallow="pedestrian bicycle" speed="12.62" length="17.81" shape="1.28,5.00 2.70,1.95 8.07,-2.21 15.60,-3.60"/>
    </edge>
    <edge id=":C_5" function="internal">
        <lane id=":C_5_0" index="0" allow="bicycle" speed="7.86" length="9.89" width="2.00" shape="15.60,10.60 11.49,11.10 8.55,12.60 7.14,14.60"/>
    </edge>
    <edge id=":C_6" function="internal">
        <lane id=":C_6_0" index="0" allow="bicycle" speed="13.89" length="34.23" width="2.00" shape="15.60,10.60 -18.60,9.20"/>
    </edge>
    <edge id=":C_7" function="internal">
        <lane id=":C_7_0" index="0" disallow="pedestrian bicycle" speed="10.10" length="8.61" shape="20.60,8.00 15.60,8.00 12.02,8.45"/>
    </edge>
    <edge id=":C_8" function="internal">
        <lane id=":C_8_0" index="0" disallow="pedestrian bicycle" speed="13.89" length="39.25" shape="20.60,4.80 15.60,4.80 -18.60,6.60"/>
    </edge>
    <edge id=":C_9" function="internal">
        <lane id=":C_9_0" index="0" disallow="pedestrian bicycle" speed="12.62" length="19.06" shape="20.60,1.60 15.60,1.60 5.89,0.53 2.00,-1.28"/>
    </edge>
    <edge id=":C_23" function="internal">
        <lane id=":C_23_0" index="0" allow="bicycle" speed="7.86" length="4.16" width="2.00" shape="7.14,14.60 6.79,15.10 6.20,18.60"/>
    </edge>
    <edge id=":C_24" function="internal">
        <lane id=":C_24_0" index="0" disallow="pedestrian bicycle" speed="10.10" length="14.63" shape="12.02,8.45 10.35,8.66 6.60,10.65 4.35,13.96 3.60,18.60"/>
    </edge>
    <edge id=":C_25" function="internal">
        <lane id=":C_25_0" index="0" disallow="pedestrian bicycle" speed="12.62" length="17.81" shape="2.00,-1.28 -1.05,-2.70 -5.21,-8.07 -6.60,-15.60"/>
    </edge>
    <edge id=":C_10" function="internal">
        <lane id=":C_10_0" index="0" allow="bicycle" speed="7.86" length="9.89" width="2.00" shape="7.60,-15.60 8.10,-11.49 9.60,-8.55 11.60,-7.14"/>
    </edge>
    <edge id=":C_11" function="internal">
        <lane id=":C_11_0" index="0" allow="bicycle" speed="13.89" length="34.23" width="2.00" shape="7.60,-15.60 6.20,18.60"/>
    </edge>
    <edge id=":C_12" function="internal">
        <lane id=":C_12_0" index="0" disallow="pedestrian bicycle" speed="10.10" length="8.61" shape="5.00,-20.60 5.00,-15.60 5.45,-12.02"/>
    </edge>
    <edge id=":C_13" function="internal">
        <lane id=":C_13_0" index="0" disallow="pedestrian bicycle" speed="13.89" length="39.25" shape="1.80,-20.60 1.80,-15.60 3.60,18.60"/>
    </edge>
    <edge id=":C_14" function="internal">
        <lane id=":C_14_0" index="0" disallow="pedestrian bicycle" speed="12.62" length="19.06" shape="-1.40,-20.60 -1.40,-15.60 -2.47,-5.89 -4.28,-2.00"/>
    </edge>
    <edge id=":C_26" function="internal">
        <lane id=":C_26_0" index="0" allow="bicycle" speed="7.86" length="4.16" width="2.00" shape="11.60,-7.14 12.10,-6.79 15.60,-6.20"/>
    </edge>
    <edge id=":C_27" function="internal">
        <lane id=":C_27_0" index="0" disallow="pedestrian bicycle" speed="10.10" length="14.63" shape="5.45,-12.02 5.66,-10.35 7.65,-6.60 10.96,-4.35 15.60,-3.60"/>
    </edge>
    <edge id=":C_28" function="internal">
        <lane id=":C_28_0" index="0" disallow="pedestrian bicycle" speed="12.62" length="17.81" shape="-4.28,-2.00 -5.70,1.05 -11.07,5.21 -18.60,6.60"/>
    </edge>
    <edge id=":C_15" function="internal">
        <lane id=":C_15_0" index="0" allow="bicycle" speed="7.86" length="9.89" width="2.00" shape="-18.60,-7.60 -14.49,-8.10 -11.55,-9.60 -10.14,-11.60"/>
    </edge>
    <edge id=":C_16" function="internal">
        <lane id=":C_16_0" index="0" allow="bicycle" speed="13.89" length="34.23" width="2.00" shape="-18.60,-7.60 15.60,-6.20"/>
    </edge>
    <edge id=":C_17" function="internal">
        <lane id=":C_17_0" index="0" disallow="pedestrian bicycle" speed="10.10" length="8.61" shape="-23.60,-5.00 -18.60,-5.00 -15.02,-5.45"/>
    </edge>
    <edge id=":C_18" function="internal">
        <lane id=":C_18_0" index="0" disallow="pedestrian bicycle" speed="13.89" length="39.25" shape="-23.60,-1.80 -18.60,-1.80 15.60,-3.60"/>
    </edge>
    <edge id=":C_19" function="internal">
        <lane id=":C_19_0" index="0" disallow="pedestrian bicycle" speed="12.62" length="19.06" shape="-23.60,1.40 -18.60,1.40 -8.89,2.47 -5.00,4.28"/>
    </edge>
    <edge id=":C_29" function="internal">
        <lane id=":C_29_0" index="0" allow="bicycle" speed="7.86" length="4.16" width="2.00" shape="-10.14,-11.60 -9.79,-12.10 -9.20,-15.60"/>
    </edge>
    <edge id=":C_30" function="internal">
        <lane id=":C_30_0" index="0" disallow="pedestrian bicycle" speed="10.10" length="14.63" shape="-15.02,-5.45 -13.35,-5.66 -9.60,-7.65 -7.35,-10.96 -6.60,-15.60"/>
    </edge>
    <edge id=":C_31" function="internal">
        <lane id=":C_31_0" index="0" disallow="pedestrian bicycle" speed="12.62" length="17.81" shape="-5.00,4.28 -1.95,5.70 2.21,11.07 3.60,18.60"/>
    </edge>
    <edge id=":C_c0" function="crossing" crossingEdges="CN NC">
        <lane id=":C_c0_0" index="0" allow="pedestrian" speed="1.00" length="18.80" width="4.00" shape="7.20,16.60 -11.60,16.60"/>
    </edge>
    <edge id=":C_c1" function="crossing" crossingEdges="CE EC">
        <lane id=":C_c1_0" index="0" allow="pedestrian" speed="1.00" length="18.80" width="4.00" shape="13.60,-7.20 13.60,11.60"/>
    </edge>
    <edge id=":C_c2" function="crossing" crossingEdges="CS SC">
        <lane id=":C_c2_0" index="0" allow="pedestrian" speed="1.00" length="18.80" width="4.00" shape="-10.20,-13.60 8.60,-13.60"/>
    </edge>
    <edge id=":C_c3" function="crossing" crossingEdges="CW WC">
        <lane id=":C_c3_0" index="0" allow="pedestrian" speed="1.00" length="18.80" width="4.00" shape="-16.60,10.20 -16.60,-8.60"/>
    </edge>
    <edge id=":C_w0" function="walkingarea">
        <lane id=":C_w0_0" index="0" allow="pedestrian" speed="1.00" length="6.71" width="4.00" shape="-18.60,10.20 -18.60,12.20 -13.60,18.60 -11.60,18.60 -11.79,16.03 -12.38,13.93 -13.35,12.30 -14.71,11.13 -16.46,10.43"/>
    </edge>
    <edge id=":C_w1" function="walkingarea">
        <lane id=":C_w1_0" index="0" allow="pedestrian" speed="1.00" length="6.71" width="4.00" shape="7.20,18.60 9.20,18.60 15.60,13.60 15.60,11.60 13.03,11.79 10.93,12.38 9.30,13.35 8.13,14.71 7.43,16.46"/>
    </edge>
    <edge id=":C_w2" function="walkingarea">
        <lane id=":C_w2_0" index="0" allow="pedestrian" speed="1.00" length="6.71" width="4.00" shape="15.60,-7.20 15.60,-9.20 10.60,-15.60 8.60,-15.60 8.79,-13.03 9.38,-10.93 10.35,-9.30 11.71,-8.13 13.46,-7.43"/>
    </edge>
    <edge id=":C_w3" function="walkingarea">
        <lane id=":C_w3_0" index="0" allow="pedestrian" speed="1.00" length="6.71" width="4.00" shape="-10.20,-15.60 -12.20,-15.60 -18.60,-10.60 -18.60,-8.60 -16.03,-8.79 -13.93,-9.38 -12.30,-10.35 -11.13,-11.71 -10.43,-13.46"/>
    </edge>
    <edge id=":E0_w0" function="walkingarea">
        <lane id=":E0_w0_0" index="0" allow="pedestrian" speed="1.00" length="17.40" width="2.00" shape="200.00,8.20 200.00,10.20 200.00,-9.20 200.00,-7.20"/>
    </edge>
    <edge id=":E1_0" function="internal">
        <lane id=":E1_0_0" index="0" allow="bicycle" speed="13.89" length="8.63" width="2.00" shape="79.00,7.20 76.53,7.73 75.00,8.90 73.47,10.07 71.00,10.60"/>
        <lane id=":E1_0_1" index="1" disallow="pedestrian bicycle" speed="13.89" length="8.63" shape="79.00,4.60 76.53,5.13 75.00,6.30 73.47,7.47 71.00,8.00"/>
        <lane id=":E1_0_2" index="2" disallow="pedestrian bicycle" speed="13.89" length="8.63" shape="79.00,4.60 71.00,4.80"/>
        <lane id=":E1_0_3" index="3" disallow="pedestrian bicycle" speed="13.89" length="8.63" shape="79.00,4.60 76.55,4.13 75.00,3.10 73.45,2.07 71.00,1.60"/>
    </edge>
    <edge id=":E1_w0" function="walkingarea">
        <lane id=":E1_w0_0" index="0" allow="pedestrian" speed="1.00" length="8.69" width="2.00" shape="71.00,11.60 71.00,13.60 79.00,10.20 79.00,8.20 77.20,8.45 75.96,9.08 75.00,9.90 74.04,10.72 72.80,11.35"/>
    </edge>
    <edge id=":N0_0" function="internal">
        <lane id=":N0_0_0" index="0" disallow="pedestrian bicycle" speed="5.22" length="11.98" shape="3.60,200.00 1.55,203.07 -0.50,204.10 -2.55,203.07 -4.60,200.00"/>
    </edge>
    <edge id=":N0_w0" function="walkingarea">
        <lane id=":N0_w0_0" index="0" allow="pedestrian" speed="1.00" length="17.40" width="2.00" shape="-8.20,200.00 -10.20,200.00 9.20,200.00 7.20,200.00"/>
    </edge>
    <edge id=":N1_0" function="internal">
        <lane id=":N1_0_0" index="0" allow="bicycle" speed="13.89" length="8.63" width="2.00" shape="-7.20,79.00 -7.73,76.53 -8.90,75.00 -10.07,73.47 -10.60,71.00"/>
        <lane id=":N1_0_1" index="1" disallow="pedestrian bicycle" speed="13.89" length="8.63" shape="-4.60,79.00 -5.13,76.53 -6.30,75.00 -7.47,73.47 -8.00,71.00"/>
        <lane id=":N1_0_2" index="2" disallow="pedestrian bicycle" speed="13.89" length="8.63" shape="-4.60,79.00 -4.80,71.00"/>
        <lane id=":N1_0_3" index="3" disallow="pedestrian bicycle" speed="13.89" length="8.63" shape="-4.60,79.00 -4.13,76.55 -3.10,75.00 -2.07,73.45 -1.60,71.00"/>
    </edge>
    <edge id=":N1_w0" function="walkingarea">
        <lane id=":N1_w0_0" index="0" allow="pedestrian" speed="1.00" length="8.69" width="2.00" shape="-11.60,71.00 -13.60,71.00 -10.20,79.00 -8.20,79.00 -8.45,77.20 -9.08,75.96 -9.90,75.00 -10.72,74.04 -11.35,72.80"/>
    </edge>
    <edge id=":S0_0" function="internal">
        <lane id=":S0_0_0" index="0" disallow="pedestrian bicycle" speed="5.22" length="11.98" shape="-6.60,-200.00 -4.55,-203.07 -2.50,-204.10 -0.45,-203.07 1.60,-200.00"/>
    </edge>
    <edge id=":S0_w0" function="walkingarea">
        <lane id=":S0_w0_0" index="0" allow="pedestrian" speed="1.00" length="17.40" width="2.00" shape="5.20,-200.00 7.20,-200.00 -12.20,-200.00 -10.20,-200.00"/>
    </edge>
    <edge id=":S1_0" function="internal">
        <lane id=":S1_0_0" index="0" allow="bicycle" speed="13.89" length="8.63" width="2.00" shape="4.20,-79.00 4.73,-76.53 5.90,-75.00 7.07,-73.47 7.60,-71.00"/>
        <lane id=":S1_0_1" index="1" disallow="pedestrian bicycle" speed="13.89" length="8.63" shape="1.60,-79.00 2.13,-76.53 3.30,-75.00 4.47,-73.47 5.00,-71.00"/>
        <lane id=":S1_0_2" index="2" disallow="pedestrian bicycle" speed="13.89" length="8.63" shape="1.60,-79.00 1.80,-71.00"/>
        <lane id=":S1_0_3" index="3" disallow="pedestrian bicycle" speed="13.89" length="8.63" shape="1.60,-79.00 1.13,-76.55 0.10,-75.00 -0.93,-73.45 -1.40,-71.00"/>
    </edge>
    <edge id=":S1_w0" function="walkingarea">
        <lane id=":S1_w0_0" index="0" allow="pedestrian" speed="1.00" length="8.69" width="2.00" shape="8.60,-71.00 10.60,-71.00 7.20,-79.00 5.20,-79.00 5.45,-77.20 6.08,-75.96 6.90,-75.00 7.72,-74.04 8.35,-72.80"/>
    </edge>
    <edge id=":W0_0" function="internal">
        <lane id=":W0_0_0" index="0" disallow="pedestrian bicycle" speed="5.22" length="11.98" shape="-200.00,6.60 -203.07,4.55 -204.10,2.50 -203.07,0.45 -200.00,-1.60"/>
    </edge>
    <edge id=":W0_w0" function="walkingarea">
        <lane id=":W0_w0_0" index="0" allow="pedestrian" speed="1.00" length="17.40" width="2.00" shape="-200.00,-5.20 -200.00,-7.20 -200.00,12.20 -200.00,10.20"/>
    </edge>
    <edge id=":W1_0" function="internal">
        <lane id=":W1_0_0" index="0" allow="bicycle" speed="13.89" length="8.63" width="2.00" shape="-79.00,-4.20 -76.53,-4.73 -75.00,-5.90 -73.47,-7.07 -71.00,-7.60"/>
        <lane id=":W1_0_1" index="1" disallow="pedestrian bicycle" speed="13.89" length="8.63" shape="-79.00,-1.60 -76.53,-2.13 -75.00,-3.30 -73.47,-4.47 -71.00,-5.00"/>
        <lane id=":W1_0_2" index="2" disallow="pedestrian bicycle" speed="13.89" length="8.63" shape="-79.00,-1.60 -71.00,-1.80"/>
        <lane id=":W1_0_3" index="3" disallow="pedestrian bicycle" speed="13.89" length="8.63" shape="-79.00,-1.60 -76.55,-1.13 -75.00,-0.10 -73.45,0.93 -71.00,1.40"/>
    </edge>
    <edge id=":W1_w0" function="walkingarea">
        <lane id=":W1_w0_0" index="0" allow="pedestrian" speed="1.00" length="8.69" width="2.00" shape="-71.00,-8.60 -71.00,-10.60 -79.00,-7.20 -79.00,-5.20 -77.20,-5.45 -75.96,-6.08 -75.00,-6.90 -74.04,-7.72 -72.80,-8.35"/>
    </edge>

    <edge id="CE" from="C" to="E0" priority="-1" shape="0.00,-2.00 200.00,-2.00">
        <lane id="CE_0" index="0" allow="pedestrian" speed="13.89" length="184.40" width="2.00" shape="15.60,-8.20 200.00,-8.20"/>
        <lane id="CE_1" index="1" allow="bicycle" speed="13.89" length="184.40" width="2.00" shape="15.60,-6.20 200.00,-6.20"/>
        <lane id="CE_2" index="2" disallow="pedestrian bicycle" speed="13.89" length="184.40" shape="15.60,-3.60 200.00,-3.60"/>
    </edge>
    <edge id="CN" from="C" to="N0" priority="-1" length="188.10" shape="2.00,0.00 2.00,200.00">
        <lane id="CN_0" index="0" allow="pedestrian" speed="13.89" length="188.10" width="2.00" shape="8.20,18.60 8.20,200.00"/>
        <lane id="CN_1" index="1" allow="bicycle" speed="13.89" length="188.10" width="2.00" shape="6.20,18.60 6.20,200.00"/>
        <lane id="CN_2" index="2" disallow="pedestrian bicycle" speed="13.89" length="188.10" shape="3.60,18.60 3.60,200.00"/>
    </edge>
    <edge id="CS" from="C" to="S0" priority="-1" shape="-5.00,0.00 -5.00,-200.00">
        <lane id="CS_0" index="0" allow="pedestrian" speed="13.89" length="184.40" width="2.00" shape="-11.20,-15.60 -11.20,-200.00"/>
        <lane id="CS_1" index="1" allow="bicycle" speed="13.89" length="184.40" width="2.00" shape="-9.20,-15.60 -9.20,-200.00"/>
        <lane id="CS_2" index="2" disallow="pedestrian bicycle" speed="13.89" length="184.40" shape="-6.60,-15.60 -6.60,-200.00"/>
    </edge>
    <edge id="CW" from="C" to="W0" priority="-1" shape="0.00,5.00 -200.00,5.00">
        <lane id="CW_0" index="0" allow="pedestrian" speed="13.89" length="181.40" width="2.00" shape="-18.60,11.20 -200.00,11.20"/>
        <lane id="CW_1" index="1" allow="bicycle" speed="13.89" length="181.40" width="2.00" shape="-18.60,9.20 -200.00,9.20"/>
        <lane id="CW_2" index="2" disallow="pedestrian bicycle" speed="13.89" length="181.40" shape="-18.60,6.60 -200.00,6.60"/>
    </edge>
    <edge id="EC" from="E1" to="C" priority="-1">
        <lane id="EC_0" index="0" allow="pedestrian" speed="13.89" length="52.40" width="2.00" shape="71.00,12.60 15.60,12.60"/>
        <lane id="EC_1" index="1" allow="bicycle" speed="13.89" length="52.40" width="2.00" shape="71.00,10.60 15.60,10.60"/>
        <lane id="EC_2" index="2" disallow="pedestrian bicycle" speed="13.89" length="52.40" endOffset="5.00" shape="71.00,8.00 20.60,8.00"/>
        <lane id="EC_3" index="3" disallow="pedestrian bicycle" speed="13.89" length="52.40" endOffset="5.00" shape="71.00,4.80 20.60,4.80"/>
        <lane id="EC_4" index="4" disallow="pedestrian bicycle" speed="13.89" length="52.40" endOffset="5.00" shape="71.00,1.60 20.60,1.60"/>
    </edge>
    <edge id="EE" from="E0" to="E1" priority="-1" shape="200.00,3.00 75.00,3.00">
        <lane id="EE_0" index="0" allow="pedestrian" speed="13.89" length="121.00" width="2.00" shape="200.00,9.20 79.00,9.20"/>
        <lane id="EE_1" index="1" allow="bicycle" speed="13.89" length="121.00" width="2.00" shape="200.00,7.20 79.00,7.20"/>
        <lane id="EE_2" index="2" disallow="pedestrian bicycle" speed="13.89" length="121.00" shape="200.00,4.60 79.00,4.60"/>
    </edge>
    <edge id="NC" from="N1" to="C" priority="-1">
        <lane id="NC_0" index="0" allow="pedestrian" speed="13.89" length="49.40" width="2.00" shape="-12.60,71.00 -12.60,18.60"/>
        <lane id="NC_1" index="1" allow="bicycle" speed="13.89" length="49.40" width="2.00" shape="-10.60,71.00 -10.60,18.60"/>
        <lane id="NC_2" index="2" disallow="pedestrian bicycle" speed="13.89" length="49.40" endOffset="5.00" shape="-8.00,71.00 -8.00,23.60"/>
        <lane id="NC_3" index="3" disallow="pedestrian bicycle" speed="13.89" length="49.40" endOffset="5.00" shape="-4.80,71.00 -4.80,23.60"/>
        <lane id="NC_4" index="4" disallow="pedestrian bicycle" speed="13.89" length="49.40" endOffset="5.00" shape="-1.60,71.00 -1.60,23.60"/>
    </edge>
    <edge id="NN" from="N0" to="N1" priority="-1" length="188.10" shape="-3.00,200.00 -3.00,75.00">
        <lane id="NN_0" index="0" allow="pedestrian" speed="13.89" length="188.10" width="2.00" shape="-9.20,200.00 -9.20,79.00"/>
        <lane id="NN_1" index="1" allow="bicycle" speed="13.89" length="188.10" width="2.00" shape="-7.20,200.00 -7.20,79.00"/>
        <lane id="NN_2" index="2" disallow="pedestrian bicycle" speed="13.89" length="188.10" shape="-4.60,200.00 -4.60,79.00"/>
    </edge>
    <edge id="SC" from="S1" to="C" priority="-1" shape="-3.00,-75.00 -3.00,0.00">
        <lane id="SC_0" index="0" allow="pedestrian" speed="13.89" length="52.40" width="2.00" shape="9.60,-71.00 9.60,-15.60"/>
        <lane id="SC_1" index="1" allow="bicycle" speed="13.89" length="52.40" width="2.00" shape="7.60,-71.00 7.60,-15.60"/>
        <lane id="SC_2" index="2" disallow="pedestrian bicycle" speed="13.89" length="52.40" endOffset="5.00" shape="5.00,-71.00 5.00,-20.60"/>
        <lane id="SC_3" index="3" disallow="pedestrian bicycle" speed="13.89" length="52.40" endOffset="5.00" shape="1.80,-71.00 1.80,-20.60"/>
        <lane id="SC_4" index="4" disallow="pedestrian bicycle" speed="13.89" length="52.40" endOffset="5.00" shape="-1.40,-71.00 -1.40,-20.60"/>
    </edge>
    <edge id="SS" from="S0" to="S1" priority="-1">
        <lane id="SS_0" index="0" allow="pedestrian" speed="13.89" length="121.00" width="2.00" shape="6.20,-200.00 6.20,-79.00"/>
        <lane id="SS_1" index="1" allow="bicycle" speed="13.89" length="121.00" width="2.00" shape="4.20,-200.00 4.20,-79.00"/>
        <lane id="SS_2" index="2" disallow="pedestrian bicycle" speed="13.89" length="121.00" shape="1.60,-200.00 1.60,-79.00"/>
    </edge>
    <edge id="WC" from="W1" to="C" priority="-1" shape="-75.00,3.00 0.00,3.00">
        <lane id="WC_0" index="0" allow="pedestrian" speed="13.89" length="49.40" width="2.00" shape="-71.00,-9.60 -18.60,-9.60"/>
        <lane id="WC_1" index="1" allow="bicycle" speed="13.89" length="49.40" width="2.00" shape="-71.00,-7.60 -18.60,-7.60"/>
        <lane id="WC_2" index="2" disallow="pedestrian bicycle" speed="13.89" length="49.40" endOffset="5.00" shape="-71.00,-5.00 -23.60,-5.00"/>
        <lane id="WC_3" index="3" disallow="pedestrian bicycle" speed="13.89" length="49.40" endOffset="5.00" shape="-71.00,-1.80 -23.60,-1.80"/>
        <lane id="WC_4" index="4" disallow="pedestrian bicycle" speed="13.89" length="49.40" endOffset="5.00" shape="-71.00,1.40 -23.60,1.40"/>
    </edge>
    <edge id="WW" from="W0" to="W1" priority="-1">
        <lane id="WW_0" index="0" allow="pedestrian" speed="13.89" length="121.00" width="2.00" shape="-200.00,-6.20 -79.00,-6.20"/>
        <lane id="WW_1" index="1" allow="bicycle" speed="13.89" length="121.00" width="2.00" shape="-200.00,-4.20 -79.00,-4.20"/>
        <lane id="WW_2" index="2" disallow="pedestrian bicycle" speed="13.89" length="121.00" shape="-200.00,-1.60 -79.00,-1.60"/>
    </edge>

    <tlLogic id="C" type="static" programID="0" offset="0">
        <phase duration="28" state="gGgGgrrrrrgGgGgrrrrrrGrG"/>
        <phase duration="5"  state="gGgGgrrrrrgGgGgrrrrrrrrr"/>
        <phase duration="3"  state="yyyygrrrrryyyygrrrrrrrrr"/>
        <phase duration="6"  state="rrrrGrrrrrrrrrGrrrrrrrrr"/>
        <phase duration="3"  state="rrrryrrrrrrrrryrrrrrrrrr"/>
        <phase duration="28" state="rrrrrgGgGgrrrrrgGgGgGrGr"/>
        <phase duration="5"  state="rrrrrgGgGgrrrrrgGgGgrrrr"/>
        <phase duration="3"  state="rrrrryyyygrrrrryyyygrrrr"/>
        <phase duration="6"  state="rrrrrrrrrGrrrrrrrrrGrrrr"/>
        <phase duration="3"  state="rrrrrrrrryrrrrrrrrryrrrr"/>
    </tlLogic>

    <junction id="C" type="traffic_light" x="0.00" y="0.00" incLanes="NC_0 NC_1 NC_2 NC_3 NC_4 EC_0 EC_1 EC_2 EC_3 EC_4 SC_0 SC_1 SC_2 SC_3 SC_4 WC_0 WC_1 WC_2 WC_3 WC_4 :C_w1_0 :C_w2_0 :C_w3_0 :C_w0_0" intLanes=":C_20_0 :C_1_0 :C_21_0 :C_3_0 :C_22_0 :C_23_0 :C_6_0 :C_24_0 :C_8_0 :C_25_0 :C_26_0 :C_11_0 :C_27_0 :C_13_0 :C_28_0 :C_29_0 :C_16_0 :C_30_0 :C_18_0 :C_31_0 :C_c0_0 :C_c1_0 :C_c2_0 :C_c3_0" shape="-13.60,18.60 9.20,18.60 9.91,15.82 10.80,14.85 12.04,14.16 13.64,13.74 15.60,13.60 15.60,-9.20 12.82,-9.91 11.85,-10.80 11.16,-12.04 10.74,-13.64 10.60,-15.60 -12.20,-15.60 -12.91,-12.82 -13.80,-11.85 -15.04,-11.16 -16.64,-10.74 -18.60,-10.60 -18.60,12.20 -15.82,12.91 -14.85,13.80 -14.16,15.04 -13.74,16.64" radius="5.00">
        <request index="0"  response="100100000000000000000000" foes="100100000000000001000000" cont="1"/>
        <request index="1"  response="010110101000000000000000" foes="010111111100000101000100" cont="0"/>
        <request index="2"  response="100100000000000000000010" foes="100100000100000101000010" cont="1"/>
        <request index="3"  response="010110100000001000000000" foes="010111110100001101000000" cont="0"/>
        <request index="4"  response="001110000011101000000000" foes="001111000011101101000000" cont="1"/>
        <request index="5"  response="001100000000100000000000" foes="001100000000100000000000" cont="1"/>
        <request index="6"  response="101000000010100000011111" foes="101010000010100010011111" cont="0"/>
        <request index="7"  response="001100000010100001000000" foes="001110000010100001000000" cont="1"/>
        <request index="8"  response="101000000110100000011110" foes="101010000110100000011110" cont="0"/>
        <request index="9"  response="011001110110100000011000" foes="011001110110100000011000" cont="1"/>
        <request index="10" response="011000000000000000000000" foes="011000010000000000000000" cont="1"/>
        <request index="11" response="010100000000001010100000" foes="010101010001001111110000" cont="0"/>
        <request index="12" response="011000000000100000000000" foes="011001010000100000010000" cont="1"/>
        <request index="13" response="010110000000001010000000" foes="010111010000001111010000" cont="0"/>
        <request index="14" response="110010000000001000001110" foes="110011010000001100001110" cont="1"/>
        <request index="15" response="110000000000000000000010" foes="110000000000000000000010" cont="1"/>
        <request index="16" response="101000000111110000001010" foes="101000100111111000001010" cont="0"/>
        <request index="17" response="110000010000000000001010" foes="110000010000001000001010" cont="1"/>
        <request index="18" response="101000000111100000011010" foes="101000000111101000011010" cont="0"/>
        <request index="19" response="100100000110000111011010" foes="100100000110000111011010" cont="1"/>
        <request index="20" response="000000000000000000000000" foes="000010000010100010111111" cont="0"/>
        <request index="21" response="000000000000000000000000" foes="000001010001011111110000" cont="0"/>
        <request index="22" response="000000000000000000000000" foes="000000101111111000001010" cont="0"/>
        <request index="23" response="000000000000000000000000" foes="000011111100000101000101" cont="0"/>
    </junction>
    <junction id="E0" type="dead_end" x="200.00" y="0.00" incLanes="CE_0 CE_1 CE_2" intLanes="" shape="200.00,3.00 200.00,-9.20 200.00,-2.00"/>
    <junction id="E1" type="priority" x="75.00" y="0.00" incLanes="EE_0 EE_1 EE_2" intLanes=":E1_0_0 :E1_0_1 :E1_0_2 :E1_0_3" shape="79.00,10.20 79.00,3.00 75.98,2.22 74.02,0.78 72.78,0.22 71.00,0.00 71.00,13.60 74.04,12.72 75.96,11.08 77.20,10.45">
        <request index="0" response="0000" foes="0000" cont="0"/>
        <request index="1" response="0000" foes="0000" cont="0"/>
        <request index="2" response="0000" foes="0000" cont="0"/>
        <request index="3" response="0000" foes="0000" cont="0"/>
    </junction>
    <junction id="N0" type="unregulated" x="0.00" y="200.00" incLanes="CN_0 CN_1 CN_2" intLanes=":N0_0_0" shape="-3.00,200.00 9.20,200.00 2.00,200.00"/>
    <junction id="N1" type="priority" x="0.00" y="75.00" incLanes="NN_0 NN_1 NN_2" intLanes=":N1_0_0 :N1_0_1 :N1_0_2 :N1_0_3" shape="-10.20,79.00 -3.00,79.00 -2.22,75.98 -0.78,74.02 -0.22,72.78 0.00,71.00 -13.60,71.00 -12.72,74.04 -11.08,75.96 -10.45,77.20">
        <request index="0" response="0000" foes="0000" cont="0"/>
        <request index="1" response="0000" foes="0000" cont="0"/>
        <request index="2" response="0000" foes="0000" cont="0"/>
        <request index="3" response="0000" foes="0000" cont="0"/>
    </junction>
    <junction id="S0" type="unregulated" x="0.00" y="-200.00" incLanes="CS_0 CS_1 CS_2" intLanes=":S0_0_0" shape="0.00,-200.00 -12.20,-200.00 -5.00,-200.00"/>
    <junction id="S1" type="priority" x="0.00" y="-75.00" incLanes="SS_0 SS_1 SS_2" intLanes=":S1_0_0 :S1_0_1 :S1_0_2 :S1_0_3" shape="-3.00,-71.00 10.60,-71.00 9.72,-74.04 8.08,-75.96 7.45,-77.20 7.20,-79.00 0.00,-79.00 -0.78,-75.98 -2.22,-74.02 -2.78,-72.78">
        <request index="0" response="0000" foes="0000" cont="0"/>
        <request index="1" response="0000" foes="0000" cont="0"/>
        <request index="2" response="0000" foes="0000" cont="0"/>
        <request index="3" response="0000" foes="0000" cont="0"/>
    </junction>
    <junction id="W0" type="unregulated" x="-200.00" y="0.00" incLanes="CW_0 CW_1 CW_2" intLanes=":W0_0_0" shape="-200.00,0.00 -200.00,12.20 -200.00,5.00"/>
    <junction id="W1" type="priority" x="-75.00" y="0.00" incLanes="WW_0 WW_1 WW_2" intLanes=":W1_0_0 :W1_0_1 :W1_0_2 :W1_0_3" shape="-71.00,3.00 -71.00,-10.60 -74.04,-9.72 -75.96,-8.08 -77.20,-7.45 -79.00,-7.20 -79.00,0.00 -75.98,0.78 -74.02,2.22 -72.78,2.78">
        <request index="0" response="0000" foes="0000" cont="0"/>
        <request index="1" response="0000" foes="0000" cont="0"/>
        <request index="2" response="0000" foes="0000" cont="0"/>
        <request index="3" response="0000" foes="0000" cont="0"/>
    </junction>

    <junction id=":C_20_0" type="internal" x="-14.60" y="10.14" incLanes=":C_0_0" intLanes=":C_6_0 :C_8_0 :C_14_0 :C_c0_0 :C_c3_0"/>
    <junction id=":C_21_0" type="internal" x="-8.45" y="15.02" incLanes=":C_2_0 NC_1" intLanes=":C_1_0 :C_6_0 :C_8_0 :C_14_0 :C_c0_0 :C_c3_0"/>
    <junction id=":C_22_0" type="internal" x="1.28" y="5.00" incLanes=":C_4_0 SC_1 SC_2 SC_3" intLanes=":C_6_0 :C_8_0 :C_9_0 :C_10_0 :C_11_0 :C_12_0 :C_13_0 :C_16_0 :C_18_0 :C_19_0 :C_c0_0 :C_c1_0"/>
    <junction id=":C_23_0" type="internal" x="7.14" y="14.60" incLanes=":C_5_0" intLanes=":C_11_0 :C_13_0 :C_19_0 :C_c0_0 :C_c1_0"/>
    <junction id=":C_24_0" type="internal" x="12.02" y="8.45" incLanes=":C_7_0 EC_1" intLanes=":C_6_0 :C_11_0 :C_13_0 :C_19_0 :C_c0_0 :C_c1_0"/>
    <junction id=":C_25_0" type="internal" x="2.00" y="-1.28" incLanes=":C_9_0 WC_1 WC_2 WC_3" intLanes=":C_1_0 :C_3_0 :C_4_0 :C_11_0 :C_13_0 :C_14_0 :C_15_0 :C_16_0 :C_17_0 :C_18_0 :C_c1_0 :C_c2_0"/>