<?xml version="1.0" encoding="UTF-8"?>

<!-- generated on Mon Aug 30 14:46:55 2021 by Eclipse SUMO duarouter Version v1_7_0+1095-7111e26d53
<configuration xmlns:xsi="http://www.w3.org/2001/XMLSchema-instance" xsi:noNamespaceSchemaLocation="http://sumo.dlr.de/xsd/duarouterConfiguration.xsd">

    <input>
        <net-file value="../networks/cross6_LFR_exits.net.xml"/>
        <additional-files value="cyclist.type.xml"/>
        <route-files value="cyclists_bi_4_8.rou.xml"/>
    </input>

    <output>
        <output-file value="cyclists_bi_4_8.rou.xml.tmp"/>
        <write-trips value="true"/>
    </output>

    <time>
        <begin value="0"/>
        <end value="3600"/>
    </time>

    <report>
        <no-warnings value="true"/>
        <ignore-errors value="true"/>
        <no-step-log value="true"/>
    </report>

</configuration>
-->

<routes xmlns:xsi="http://www.w3.org/2001/XMLSchema-instance" xsi:noNamespaceSchemaLocation="http://sumo.dlr.de/xsd/routes_file.xsd">
    <vType id="cyclist" vClass="bicycle"/>
    <trip id="c3" type="cyclist" depart="1.00" from="WW" to="CS"/>
    <trip id="c7" type="cyclist" depart="34.00" from="WW" to="CS"/>
    <trip id="c8" type="cyclist" depart="35.00" from="EE" to="CW"/>
    <trip id="c9" type="cyclist" depart="38.00" from="SS" to="CN"/>
    <trip id="c10" type="cyclist" depart="40.00" from="EE" to="CN"/>
    <trip id="c11" type="cyclist" depart="43.00" from="WW" to="CS"/>
    <trip id="c13" type="cyclist" depart="48.00" from="EE" to="CN"/>
    <trip id="c15" type="cyclist" depart="56.00" from="NN" to="CW"/>
    <trip id="c16" type="cyclist" depart="57.00" from="NN" to="CS"/>
    <trip id="c17" type="cyclist" depart="58.00" from="NN" to="CS"/>
    <trip id="c18" type="cyclist" depart="58.00" from="SS" to="CE"/>
    <trip id="c21" type="cyclist" depart="62.00" from="NN" to="CS"/>
    <trip id="c22" type="cyclist" depart="68.00" from="WW" to="CE"/>
    <trip id="c23" type="cyclist" depart="69.00" from="WW" to="CE"/>
    <trip id="c24" type="cyclist" depart="73.00" from="SS" to="CN"/>
    <trip id="c25" type="cyclist" depart="79.00" from="NN" to="CS"/>
    <trip id="c27" type="cyclist" depart="112.00" from="SS" to="CN"/>
    <trip id="c28" type="cyclist" depart="113.00" from="WW" to="CS"/>
    <trip id="c29" type="cyclist" depart="119.00" from="WW" to="CE"/>
    <trip id="c30" type="cyclist" depart="120.00" from="WW" to="CE"/>
    <trip id="c31" type="cyclist" depart="121.00" from="EE" to="CW"/>
    <trip id="c33" type="cyclist" depart="133.00" from="WW" to="CS"/>
    <trip id="c34" type="cyclist" depart="133.00" from="SS" to="CE"/>
    <trip id="c36" type="cyclist" depart="137.00" from="SS" to="CE"/>
    <trip id="c38" type="cyclist" depart="139.00" from="NN" to="CW"/>
    <trip id="c41" type="cyclist" depart="163.00" from="EE" to="CN"/>
    <trip id="c42" type="cyclist" depart="165.00" from="SS" to="CE"/>
    <trip id="c44" type="cyclist" depart="183.00" from="SS" to="CN"/>
    <trip id="c46" type="cyclist" depart="195.00" from="WW" to="CS"/>
    <trip id="c47" type="cyclist" depart="203.00" from="NN" to="CW"/>
    <trip id="c50" type="cyclist" depart="217.00" from="SS" to="CE"/>
    <trip id="c52" type="cyclist" depart="232.00" from="EE" to="CN"/>
    <trip id="c55" type="cyclist" depart="250.00" from="SS" to="CN"/>
    <trip id="c56" type="cyclist" depart="251.00" from="SS" to="CE"/>
    <trip id="c57" type="cyclist" depart="251.00" from="WW" to="CS"/>
    <trip id="c58" type="cyclist" depart="254.00" from="EE" to="CN"/>
    <trip id="c59" type="cyclist" depart="260.00" from="NN" to="CW"/>
    <trip id="c62" type="cyclist" depart="275.00" from="NN" to="CS"/>
    <trip id="c63" type="cyclist" depart="277.00" from="EE" to="CN"/>
    <trip id="c64" type="cyclist" depart="280.00" from="SS" to="CE"/>
    <trip id="c65" type="cyclist" depart="287.00" from="EE" to="CW"/>
    <trip id="c67" type="cyclist" depart="297.00" from="WW" to="CS"/>
    <trip id="c68" type="cyclist" depart="300.00" from="WW" to="CE"/>
    <trip id="c71" type="cyclist" depart="305.00" from="SS" to="CN"/>
    <trip id="c72" type="cyclist" depart="311.00" from="EE" to="CN"/>
    <trip id="c79" type="cyclist" depart="334.00" from="EE" to="CW"/>
    <trip id="c80" type="cyclist" depart="336.00" from="SS" to="CE"/>
    <trip id="c82" type="cyclist" depart="345.00" from="WW" to="CE"/>
    <trip id="c84" type="cyclist" depart="352.00" from="NN" to="CS"/>
    <trip id="c85" type="cyclist" depart="356.00" from="WW" to="CE"/>
    <trip id="c86" type="cyclist" depart="358.00" from="EE" to="CN"/>
    <trip id="c88" type="cyclist" depart="374.00" from="EE" to="CW"/>
    <trip id="c89" type="cyclist" depart="375.00" from="NN" to="CS"/>
    <trip id="c91" type="cyclist" depart="378.00" from="WW" to="CS"/>
    <trip id="c92" type="cyclist" depart="378.00" from="NN" to="CW"/>
    <trip id="c93" type="cyclist" depart="390.00" from="NN" to="CW"/>
    <trip id="c94" type="cyclist" depart="392.00" from="NN" to="CW"/>
    <trip id="c95" type="cyclist" depart="397.00" from="SS" to="CN"/>
    <trip id="c100" type="cyclist" depart="431.00" from="NN" to="CS"/>
    <trip id="c101" type="cyclist" depart="438.00" from="SS" to="CN"/>
    <trip id="c106" type="cyclist" depart="456.00" from="SS" to="CE"/>
    <trip id="c111" type="cyclist" depart="484.00" from="EE" to="CW"/>
    <trip id="c113" type="cyclist" depart="490.00" from="WW" to="CE"/>
    <trip id="c115" type="cyclist" depart="503.00" from="EE" to="CW"/>
    <trip id="c117" type="cyclist" depart="509.00" from="NN" to="CW"/>
    <trip id="c124" type="cyclist" depart="525.00" from="EE" to="CW"/>
    <trip id="c125" type="cyclist" depart="530.00" from="SS" to="CN"/>
    <trip id="c127" type="cyclist" depart="543.00" from="WW" to="CS"/>
    <trip id="c129" type="cyclist" depart="553.00" from="NN" to="CW"/>
    <trip id="c130" type="cyclist" depart="555.00" from="SS" to="CE"/>
    <trip id="c134" type="cyclist" depart="558.00" from="WW" to="CS"/>
    <trip id="c136" type="cyclist" depart="561.00" from="SS" to="CN"/>
    <trip id="c138" type="cyclist" depart="582.00" from="WW" to="CE"/>
    <trip id="c140" type="cyclist" depart="592.00" from="EE" to="CN"/>
    <trip id="c141" type="cyclist" depart="593.00" from="SS" to="CN"/>
    <trip id="c142" type="cyclist" depart="593.00" from="EE" to="CN"/>
    <trip id="c143" type="cyclist" depart="596.00" from="WW" to="CS"/>
    <trip id="c144" type="cyclist" depart="599.00" from="NN" to="CS"/>
    <trip id="c145" type="cyclist" depart="601.00" from="WW" to="CS"/>
    <trip id="c150" type="cyclist" depart="622.00" from="SS" to="CN"/>
    <trip id="c154" type="cyclist" depart="640.00" from="EE" to="CW"/>
    <trip id="c158" type="cyclist" depart="674.00" from="WW" to="CE"/>
    <trip id="c160" type="cyclist" depart="677.00" from="NN" to="CW"/>
    <trip id="c162" type="cyclist" depart="698.00" from="SS" to="CN"/>
    <trip id="c163" type="cyclist" depart="705.00" from="EE" to="CN"/>
    <trip id="c164" type="cyclist" depart="711.00" from="SS" to="CN"/>
    <trip id="c165" type="cyclist" depart="715.00" from="WW" to="CE"/>
    <trip id="c167" type="cyclist" depart="737.00" from="EE" to="CW"/>
    <trip id="c171" type="cyclist" depart="751.00" from="WW" to="CE"/>
    <trip id="c172" type="cyclist" depart="757.00" from="WW" to="CS"/>
    <trip id="c174" type="cyclist" depart="772.00" from="EE" to="CN"/>
    <trip id="c176" type="cyclist" depart="785.00" from="WW" to="CS"/>
    <trip id="c184" type="cyclist" depart="821.00" from="NN" to="CS"/>
    <trip id="c185" type="cyclist" depart="824.00" from="WW" to="CS"/>
    <trip id="c186" type="cyclist" depart="841.00" from="WW" to="CE"/>
    <trip id="c188" type="cyclist" depart="844.00" from="EE" to="CN"/>
    <trip id="c189" type="cyclist" depart="849.00" from="NN" to="CW"/>
    <trip id="c192" type="cyclist" depart="853.00" from="NN" to="CW"/>
    <trip id="c193" type="cyclist" depart="855.00" from="WW" to="CS"/>
    <trip id="c194" type="cyclist" depart="856.00" from="NN" to="CW"/>
    <trip id="c195" type="cyclist" depart="856.00" from="NN" to="CW"/>
    <trip id="c198" type="cyclist" depart="869.00" from="NN" to="CW"/>
    <trip id="c201" type="cyclist" depart="878.00" from="EE" to="CN"/>
    <trip id="c204" type="cyclist" depart="880.00" from="SS" to="CN"/>
    <trip id="c205" type="cyclist" depart="893.00" from="NN" to="CW"/>
    <trip id="c209" type="cyclist" depart="911.00" from="EE" to="CW"/>
    <trip id="c210" type="cyclist" depart="913.00" from="EE" to="CN"/>
    <trip id="c213" type="cyclist" depart="928.00" from="WW" to="CE"/>
    <trip id="c214" type="cyclist" depart="932.00" from="NN" to="CW"/>
    <trip id="c216" type="cyclist" depart="939.00" from="WW" to="CS"/>
    <trip id="c225" type="cyclist" depart="982.00" from="NN" to="CW"/>
    <trip id="c226" type="cyclist" depart="988.00" from="SS" to="CE"/>
    <trip id="c227" type="cyclist" depart="989.00" from="NN" to="CW"/>
    <trip id="c228" type="cyclist" depart="992.00" from="SS" to="CE"/>
    <trip id="c229" type="cyclist" depart="1004.00" from="WW" to="CE"/>
    <trip id="c233" type="cyclist" depart="1029.00" from="NN" to="CS"/>
    <trip id="c238" type="cyclist" depart="1045.00" from="WW" to="CE"/>
    <trip id="c239" type="cyclist" depart="1049.00" from="WW" to="CE"/>
    <trip id="c242" type="cyclist" depart="1055.00" from="WW" to="CS"/>
    <trip id="c243" type="cyclist" depart="1059.00" from="NN" to="CS"/>
    <trip id="c246" type="cyclist" depart="1081.00" from="WW" to="CS"/>
    <trip id="c247" type="cyclist" depart="1083.00" from="NN" to="CW"/>
    <trip id="c248" type="cyclist" depart="1085.00" from="WW" to="CE"/>
    <trip id="c250" type="cyclist" depart="1093.00" from="EE" to="CN"/>
    <trip id="c252" type="cyclist" depart="1102.00" from="EE" to="CW"/>
    <trip id="c255" type="cyclist" depart="1111.00" from="EE" to="CN"/>
    <trip id="c258" type="cyclist" depart="1126.00" from="EE" to="CW"/>
    <trip id="c259" type="cyclist" depart="1129.00" from="SS" to="CN"/>
    <trip id="c261" type="cyclist" depart="1140.00" from="NN" to="CS"/>
    <trip id="c263" type="cyclist" depart="1147.00" from="EE" to="CN"/>
    <trip id="c267" type="cyclist" depart="1158.00" from="NN" to="CS"/>
    <trip id="c268" type="cyclist" depart="1159.00" from="SS" to="CE"/>
    <trip id="c269" type="cyclist" depart="1163.00" from="NN" to="CS"/>
    <trip id="c270" type="cyclist" depart="1163.00" from="NN" to="CS"/>
    <trip id="c272" type="cyclist" depart="1184.00" from="EE" to="CW"/>
    <trip id="c277" type="cyclist" depart="1218.00" from="EE" to="CN"/>
    <trip id="c279" type="cyclist" depart="1228.00" from="WW" to="CE"/>
    <trip id="c280" type="cyclist" depart="1233.00" from="EE" to="CN"/>
    <trip id="c283" type="cyclist" depart="1246.00" from="WW" to="CE"/>
    <trip id="c284" type="cyclist" depart="1248.00" from="WW" to="CS"/>
    <trip id="c290" type="cyclist" depart="1273.00" from="NN" to="CS"/>
    <trip id="c292" type="cyclist" depart="1276.00" from="WW" to="CE"/>
    <trip id="c298" type="cyclist" depart="1295.00" from="EE" to="CW"/>
    <trip id="c299" type="cyclist" depart="1304.00" from="NN" to="CS"/>
    <trip id="c300" type="cyclist" depart="1309.00" from="NN" to="CS"/>
    <trip id="c305" type="cyclist" depart="1321.00" from="SS" to="CE"/>
    <trip id="c306" type="cyclist" depart="1321.00" from="WW" to="CS"/>
    <trip id="c308" type="cyclist" depart="1334.00" from="NN" to="CS"/>
    <trip id="c309" type="cyclist" depart="1341.00" from="EE" to="CN"/>
    <trip id="c311" type="cyclist" depart="1352.00" from="WW" to="CS"/>
    <trip id="c312" type="cyclist" depart="1361.00" from="SS" to="CE"/>
    <trip id="c313" type="cyclist" depart="1367.00" from="WW" to="CE"/>
    <trip id="c314" type="cyclist" depart="1369.00" from="EE" to="CN"/>
    <trip id="c316" type="cyclist" depart="1374.00" from="SS" to="CE"/>
    <trip id="c317" type="cyclist" depart="1374.00" from="EE" to="CN"/>
    <trip id="c320" type="cyclist" depart="1389.00" from="WW" to="CE"/>
    <trip id="c321" type="cyclist" depart="1402.00" from="SS" to="CN"/>
    <trip id="c322" type="cyclist" depart="1406.00" from="NN" to="CS"/>
    <trip id="c323" type="cyclist" depart="1410.00" from="EE" to="CN"/>
    <trip id="c324" type="cyclist" depart="1420.00" from="SS" to="CE"/>
    <trip id="c331" type="cyclist" depart="1460.00" from="WW" to="CE"/>
    <trip id="c332" type="cyclist" depart="1460.00" from="EE" to="CW"/>
    <trip id="c333" type="cyclist" depart="1478.00" from="WW" to="CE"/>
    <trip id="c334" type="cyclist" depart="1487.00" from="WW" to="CE"/>
    <trip id="c337" type="cyclist" depart="1498.00" from="NN" to="CW"/>
    <trip id="c338" type="cyclist" depart="1502.00" from="EE" to="CW"/>
    <trip id="c339" type="cyclist" depart="1504.00" from="WW" to="CE"/>
    <trip id="c341" type="cyclist" depart="1510.00" from="SS" to="CE"/>
    <trip id="c342" type="cyclist" depart="1514.00" from="EE" to="CN"/>
    <trip id="c343" type="cyclist" depart="1514.00" from="WW" to="CS"/>
    <trip id="c346" type="cyclist" depart="1522.00" from="SS" to="CE"/>
    <trip id="c354" type="cyclist" depart="1549.00" from="SS" to="CE"/>
    <trip id="c355" type="cyclist" depart="1551.00" from="WW" to="CS"/>
    <trip id="c356" type="cyclist" depart="1562.00" from="WW" to="CS"/>
    <trip id="c359" type="cyclist" depart="1567.00" from="EE" to="CN"/>
    <trip id="c360" type="cyclist" depart="1570.00" from="EE" to="CW"/>
    <trip id="c363" type="cyclist" depart="1579.00" from="EE" to="CW"/>
    <trip id="c364" type="cyclist" depart="1580.00" from="WW" to="CE"/>
    <trip id="c367" type="cyclist" depart="1595.00" from="EE" to="CW"/>
    <trip id="c368" type="cyclist" depart="1599.00" from="NN" to="CS"/>
    <trip id="c369" type="cyclist" depart="1608.00" from="WW" to="CE"/>
    <trip id="c371" type="cyclist" depart="1616.00" from="SS" to="CE"/>
    <trip id="c372" type="cyclist" depart="1618.00" from="NN" to="CW"/>
    <trip id="c373" type="cyclist" depart="1622.00" from="NN" to="CS"/>
    <trip id="c374" type="cyclist" depart="1623.00" from="EE" to="CN"/>
    <trip id="c376" type="cyclist" depart="1627.00" from="NN" to="CW"/>
    <trip id="c377" type="cyclist" depart="1632.00" from="EE" to="CW"/>
    <trip id="c378" type="cyclist" depart="1640.00" from="WW" to="CE"/>
    <trip id="c379" type="cyclist" depart="1642.00" from="SS" to="CN"/>
    <trip id="c382" type="cyclist" depart="1656.00" from="NN" to="CW"/>
    <trip id="c384" type="cyclist" depart="1668.00" from="EE" to="CW"/>
    <trip id="c385" type="cyclist" depart="1675.00" from="NN" to="CW"/>
    <trip id="c388" type="cyclist" depart="1687.00" from="SS" to="CN"/>
    <trip id="c394" type="cyclist" depart="1725.00" from="WW" to="CE"/>
    <trip id="c395" type="cyclist" depart="1730.00" from="SS" to="CE"/>
    <trip id="c397" type="cyclist" depart="1736.00" from="SS" to="CN"/>
    <trip id="c398" type="cyclist" depart="1742.00" from="EE" to="CN"/>
    <trip id="c399" type="cyclist" depart="1751.00" from="EE" to="CW"/>
    <trip id="c400" type="cyclist" depart="1751.00" from="EE" to="CW"/>
    <trip id="c401" type="cyclist" depart="1753.00" from="SS" to="CE"/>
    <trip id="c403" type="cyclist" depart="1760.00" from="EE" to="CN"/>
    <trip id="c404" type="cyclist" depart="1765.00" from="WW" to="CS"/>
    <trip id="c405" type="cyclist" depart="1772.00" from="SS" to="CE"/>
    <trip id="c412" type="cyclist" depart="1787.00" from="WW" to="CS"/>
    <trip id="c413" type="cyclist" depart="1798.00" from="EE" to="CW"/>
    <trip id="c414" type="cyclist" depart="1798.00" from="WW" to="CS"/>
    <trip id="c415" type="cyclist" depart="1800.00" from="SS" to="CE"/>
    <trip id="c416" type="cyclist" depart="1801.00" from="NN" to="CW"/>
    <trip id="c417" type="cyclist" depart="1804.00" from="EE" to="CW"/>
    <trip id="c418" type="cyclist" depart="1808.00" from="SS" to="CN"/>
    <trip id="c423" type="cyclist" depart="1838.00" from="NN" to="CS"/>
    <trip id="c426" type="cyclist" depart="1841.00" from="EE" to="CN"/>
    <trip id="c431" type="cyclist" depart="1871.00" from="EE" to="CW"/>
    <trip id="c437" type="cyclist" depart="1883.00" from="SS" to="CE"/>
    <trip id="c440" type="cyclist" depart="1889.00" from="EE" to="CW"/>
    <trip id="c442" type="cyclist" depart="1895.00" from="NN" to="CS"/>
    <trip id="c443" type="cyclist" depart="1896.00" from="WW" to="CS"/>
    <trip id="c444" type="cyclist" depart="1901.00" from="EE" to="CW"/>
    <trip id="c446" type="cyclist" depart="1910.00" from="SS" to="CE"/>
    <trip id="c447" type="cyclist" depart="1916.00" from="EE" to="CW"/>
    <trip id="c448" type="cyclist" depart="1918.00" from="SS" to="CN"/>
    <trip id="c450" type="cyclist" depart="1931.00" from="EE" to="CW"/>
    <trip id="c451" type="cyclist" depart="1937.00" from="NN" to="CS"/>
    <trip id="c453" type="cyclist" depart="1947.00" from="WW" to="CS"/>
    <trip id="c456" type="cyclist" depart="1961.00" from="EE" to="CW"/>
    <trip id="c457" type="cyclist" depart="1961.00" from="SS" to="CN"/>
    <trip id="c458" type="cyclist" depart="1962.00" from="EE" to="CN"/>
    <trip id="c460" type="cyclist" depart="1967.00" from="SS" to="CN"/>
    <trip id="c464" type="cyclist" depart="1973.00" from="SS" to="CE"/>
    <trip id="c465" type="cyclist" depart="1974.00" from="WW" to="CS"/>
    <trip id="c467" type="cyclist" depart="1981.00" from="SS" to="CE"/>
    <trip id="c471" type="cyclist" depart="2003.00" from="SS" to="CN"/>
    <trip id="c473" type="cyclist" depart="2008.00" from="EE" to="CW"/>
    <trip id="c474" type="cyclist" depart="2008.00" from="NN" to="CW"/>
    <trip id="c476" type="cyclist" depart="2009.00" from="NN" to="CW"/>
    <trip id="c478" type="cyclist" depart="2019.00" from="WW" to="CS"/>
    <trip id="c479" type="cyclist" depart="2025.00" from="SS" to="CE"/>
    <trip id="c483" type="cyclist" depart="2047.00" from="SS" to="CN"/>
    <trip id="c486" type="cyclist" depart="2071.00" from="EE" to="CW"/>
    <trip id="c487" type="cyclist" depart="2072.00" from="NN" to="CW"/>
    <trip id="c489" type="cyclist" depart="2089.00" from="SS" to="CE"/>
    <trip id="c490" type="cyclist" depart="2093.00" from="WW" to="CE"/>
    <trip id="c491" type="cyclist" depart="2094.00" from="EE" to="CN"/>
    <trip id="c493" type="cyclist" depart="2098.00" from="WW" to="CS"/>
    <trip id="c494" type="cyclist" depart="2102.00" from="NN" to="CS"/>
    <trip id="c495" type="cyclist" depart="2115.00" from="WW" to="CS"/>
    <trip id="c496" type="cyclist" depart="2124.00" from="EE" to="CN"/>
    <trip id="c497" type="cyclist" depart="2132.00" from="WW" to="CE"/>
    <trip id="c498" type="cyclist" depart="2134.00" from="NN" to="CW"/>
    <trip id="c500" type="cyclist" depart="2147.00" from="WW" to="CE"/>
    <trip id="c501" type="cyclist" depart="2148.00" from="SS" to="CE"/>
    <trip id="c503" type="cyclist" depart="2150.00" from="EE" to="CW"/>
    <trip id="c504" type="cyclist" depart="2161.00" from="WW" to="CE"/>
    <trip id="c505" type="cyclist" depart="2162.00" from="WW" to="CE"/>
    <trip id="c506" type="cyclist" depart="2169.00" from="SS" to="CE"/>
    <trip id="c507" type="cyclist" depart="2169.00" from="EE" to="CW"/>
    <trip id="c508" type="cyclist" depart="2170.00" from="SS" to="CN"/>
    <trip id="c510" type="cyclist" depart="2179.00" from="WW" to="CS"/>
    <trip id="c513" type="cyclist" depart="2192.00" from="WW" to="CS"/>
    <trip id="c515" type="cyclist" depart="2198.00" from="EE" to="CN"/>
    <trip id="c519" type="cyclist" depart="2228.00" from="NN" to="CS"/>
    <trip id="c520" type="cyclist" depart="2232.00" from="WW" to="CS"/>
    <trip id="c521" type="cyclist" depart="2236.00" from="SS" to="CE"/>
    <trip id="c522" type="cyclist" depart="2236.00" from="WW" to="CS"/>
    <trip id="c524" type="cyclist" depart="2248.00" from="EE" to="CN"/>
    <trip id="c527" type="cyclist" depart="2260.00" from="WW" to="CE"/>
    <trip id="c528" type="cyclist" depart="2268.00" from="NN" to="CS"/>
    <trip id="c530" type="cyclist" depart="2268.00" from="NN" to="CS"/>
    <trip id="c534" type="cyclist" depart="2276.00" from="WW" to="CE"/>
    <trip id="c535" type="cyclist" depart="2280.00" from="SS" to="CN"/>
    <trip id="c537" type="cyclist" depart="2286.00" from="WW" to="CE"/>
    <trip id="c538" type="cyclist" depart="2286.00" from="SS" to="CE"/>
    <trip id="c542" type="cyclist" depart="2295.00" from="NN" to="CW"/>
    <trip id="c547" type="cyclist" depart="2307.00" from="SS" to="CN"/>
    <trip id="c548" type="cyclist" depart="2307.00" from="NN" to="CS"/>
    <trip id="c549" type="cyclist" depart="2317.00" from="SS" to="CE"/>
    <trip id="c553" type="cyclist" depart="2328.00" from="WW" to="CS"/>
    <trip id="c554" type="cyclist" depart="2328.00" from="EE" to="CN"/>
    <trip id="c555" type="cyclist" depart="2329.00" from="SS" to="CE"/>
    <trip id="c556" type="cyclist" depart="2332.00" from="WW" to="CS"/>
    <trip id="c558" type="cyclist" depart="2335.00" from="WW" to="CS"/>
    <trip id="c559" type="cyclist" depart="2337.00" from="WW" to="CE"/>
    <trip id="c560" type="cyclist" depart="2339.00" from="WW" to="CS"/>
    <trip id="c561" type="cyclist" depart="2348.00" from="EE" to="CW"/>
    <trip id="c562" type="cyclist" depart="2350.00" from="EE" to="CN"/>
    <trip id="c563" type="cyclist" depart="2352.00" from="SS" to="CN"/>
    <trip id="c564" type="cyclist" depart="2355.00" from="NN" to="CW"/>
    <trip id="c567" type="cyclist" depart="2359.00" from="WW" to="CS"/>
    <trip id="c568" type="cyclist" depart="2363.00" from="EE" to="CN"/>
    <trip id="c573" type="cyclist" depart="2377.00" from="EE" to="CN"/>
    <trip id="c574" type="cyclist" depart="2381.00" from="SS" to="CN"/>
    <trip id="c575" type="cyclist" depart="2388.00" from="SS" to="CE"/>
    <trip id="c576" type="cyclist" depart="2398.00" from="SS" to="CN"/>
    <trip id="c578" type="cyclist" depart="2406.00" from="EE" to="CW"/>
    <trip id="c579" type="cyclist" depart="2408.00" from="SS" to="CE"/>
    <trip id="c580" type="cyclist" depart="2410.00" from="WW" to="CS"/>
    <trip id="c581" type="cyclist" depart="2419.00" from="NN" to="CS"/>
    <trip id="c582" type="cyclist" depart="2420.00" from="WW" to="CS"/>
    <trip id="c583" type="cyclist" depart="2425.00" from="SS" to="CN"/>
    <trip id="c584" type="cyclist" depart="2428.00" from="NN" to="CS"/>
    <trip id="c585" type="cyclist" depart="2432.00" from="SS" to="CN"/>
    <trip id="c587" type="cyclist" depart="2435.00" from="EE" to="CW"/>
    <trip id="c589" type="cyclist" depart="2439.00" from="NN" to="CW"/>
    <trip id="c591" type="cyclist" depart="2440.00" from="NN" to="CS"/>
    <trip id="c596" type="cyclist" depart="2450.00" from="SS" to="CN"/>
    <trip id="c598" type="cyclist" depart="2453.00" from="EE" to="CW"/>
    <trip id="c602" type="cyclist" depart="2477.00" from="EE" to="CW"/>
    <trip id="c605" type="cyclist" depart="2486.00" from="NN" to="CS"/>
    <trip id="c606" type="cyclist" depart="2488.00" from="EE" to="CW"/>
    <trip id="c607" type="cyclist" depart="2488.00" from="NN" to="CW"/>
    <trip id="c608" type="cyclist" depart="2488.00" from="WW" to="CS"/>
    <trip id="c609" type="cyclist" depart="2489.00" from="EE" to="CN"/>
    <trip id="c610" type="cyclist" depart="2491.00" from="NN" to="CS"/>
    <trip id="c613" type="cyclist" depart="2505.00" from="SS" to="CE"/>
    <trip id="c616" type="cyclist" depart="2514.00" from="EE" to="CW"/>
    <trip id="c618" type="cyclist" depart="2515.00" from="NN" to="CS"/>
    <trip id="c619" type="cyclist" depart="2521.00" from="SS" to="CE"/>
    <trip id="c621" type="cyclist" depart="2529.00" from="SS" to="CN"/>
    <trip id="c623" type="cyclist" depart="2533.00" from="WW" to="CE"/>
    <trip id="c624" type="cyclist" depart="2545.00" from="SS" to="CE"/>
    <trip id="c630" type="cyclist" depart="2561.00" from="WW" to="CS"/>
    <trip id="c632" type="cyclist" depart="2564.00" from="NN" to="CW"/>
    <trip id="c633" type="cyclist" depart="2567.00" from="EE" to="CN"/>
    <trip id="c637" type="cyclist" depart="2609.00" from="WW" to="CS"/>
    <trip id="c638" type="cyclist" depart="2610.00" from="EE" to="CW"/>
    <trip id="c639" type="cyclist" depart="2612.00" from="WW" to="CS"/>
    <trip id="c642" type="cyclist" depart="2625.00" from="EE" to="CN"/>
    <trip id="c643" type="cyclist" depart="2627.00" from="WW" to="CE"/>
    <trip id="c646" type="cyclist" depart="2631.00" from="NN" to="CW"/>
    <trip id="c649" type="cyclist" depart="2638.00" from="NN" to="CS"/>
    <trip id="c651" type="cyclist" depart="2651.00" from="EE" to="CW"/>
    <trip id="c653" type="cyclist" depart="2656.00" from="NN" to="CS"/>
    <trip id="c654" type="cyclist" depart="2659.00" from="NN" to="CS"/>
    <trip id="c655" type="cyclist" depart="2663.00" from="NN" to="CS"/>
    <trip id="c656" type="cyclist" depart="2669.00" from="EE" to="CW"/>
    <trip id="c657" type="cyclist" depart="2670.00" from="WW" to="CS"/>
    <trip id="c658" type="cyclist" depart="2678.00" from="EE" to="CW"/>
    <trip id="c659" type="cyclist" depart="2682.00" from="WW" to="CS"/>
    <trip id="c663" type="cyclist" depart="2691.00" from="NN" to="CS"/>
    <trip id="c664" type="cyclist" depart="2694.00" from="EE" to="CN"/>
    <trip id="c666" type="cyclist" depart="2696.00" from="WW" to="CS"/>
    <trip id="c671" type="cyclist" depart="2707.00" from="WW" to="CS"/>
    <trip id="c673" type="cyclist" depart="2711.00" from="EE" to="CN"/>
    <trip id="c674" type="cyclist" depart="2712.00" from="SS" to="CE"/>
    <trip id="c675" type="cyclist" depart="2721.00" from="SS" to="CN"/>
    <trip id="c679" type="cyclist" depart="2734.00" from="NN" to="CW"/>
    <trip id="c683" type="cyclist" depart="2744.00" from="WW" to="CE"/>
    <trip id="c685" type="cyclist" depart="2747.00" from="EE" to="CN"/>
    <trip id="c686" type="cyclist" depart="2752.00" from="WW" to="CS"/>
    <trip id="c688" type="cyclist" depart="2772.00" from="SS" to="CN"/>
    <trip id="c690" type="cyclist" depart="2776.00" from="EE" to="CN"/>
    <trip id="c691" type="cyclist" depart="2782.00" from="WW" to="CS"/>
    <trip id="c693" type="cyclist" depart="2785.00" from="WW" to="CE"/>
    <trip id="c695" type="cyclist" depart="2791.00" from="NN" to="CS"/>
    <trip id="c696" type="cyclist" depart="2794.00" from="SS" to="CN"/>
    <trip id="c697" type="cyclist" depart="2798.00" from="SS" to="CE"/>
    <trip id="c698" type="cyclist" depart="2799.00" from="NN" to="CS"/>
    <trip id="c700" type="cyclist" depart="2809.00" from="WW" to="CS"/>
    <trip id="c701" type="cyclist" depart="2809.00" from="EE" to="CN"/>
    <trip id="c704" type="cyclist" depart="2823.00" from="SS" to="CE"/>
    <trip id="c705" type="cyclist" depart="2824.00" from="WW" to="CE"/>
    <trip id="c707" type="cyclist" depart="2834.00" from="SS" to="CE"/>
    <trip id="c710" type="cyclist" depart="2847.00" from="SS" to="CN"/>
    <trip id="c711" type="cyclist" depart="2848.00" from="WW" to="CE"/>
    <trip id="c713" type="cyclist" depart="2858.00" from="EE" to="CN"/>
    <trip id="c716" type="cyclist" depart="2870.00" from="SS" to="CN"/>
    <trip id="c717" type="cyclist" depart="2874.00" from="SS" to="CN"/>
    <trip id="c720" type="cyclist" depart="2901.00" from="SS" to="CN"/>
    <trip id="c721" type="cyclist" depart="2905.00" from="EE" to="CN"/>
    <trip id="c725" type="cyclist" depart="2918.00" from="SS" to="CN"/>
    <trip id="c726" type="cyclist" depart="2922.00" from="EE" to="CN"/>
    <trip id="c728" type="cyclist" depart="2929.00" from="WW" to="CE"/>
    <trip id="c729" type="cyclist" depart="2930.00" from="NN" to="CW"/>
    <trip id="c730" type="cyclist" depart="2939.00" from="WW" to="CE"/>
    <trip id="c731" type="cyclist" depart="2940.00" from="WW" to="CE"/>
    <trip id="c733" type="cyclist" depart="2945.00" from="WW" to="CS"/>
    <trip id="c735" type="cyclist" depart="2950.00" from="SS" to="CE"/>
    <trip id="c740" type="cyclist" depart="2976.00" from="SS" to="CE"/>
    <trip id="c741" type="cyclist" depart="2978.00" from="WW" to="CS"/>
    <trip id="c744" type="cyclist" depart="2982.00" from="WW" to="CS"/>
    <trip id="c746" type="cyclist" depart="2988.00" from="NN" to="CW"/>
    <trip id="c747" type="cyclist" depart="3007.00" from="EE" to="CW"/>
    <trip id="c749" type="cyclist" depart="3028.00" from="WW" to="CS"/>
    <trip id="c752" type="cyclist" depart="3066.00" from="EE" to="CN"/>
    <trip id="c755" type="cyclist" depart="3071.00" from="EE" to="CW"/>
    <trip id="c756" type="cyclist" depart="3073.00" from="EE" to="CN"/>
    <trip id="c757" type="cyclist" depart="3096.00" from="EE" to="CN"/>
    <trip id="c760" type="cyclist" depart="3105.00" from="SS" to="CN"/>
    <trip id="c761" type="cyclist" depart="3109.00" from="WW" to="CS"/>
    <trip id="c762" type="cyclist" depart="3114.00" from="NN" to="CS"/>
    <trip id="c765" type="cyclist" depart="3132.00" from="EE" to="CN"/>
    <trip id="c766" type="cyclist" depart="3132.00" from="SS" to="CE"/>
    <trip id="c768" type="cyclist" depart="3142.00" from="SS" to="CN"/>
    <trip id="c770" type="cyclist" depart="3158.00" from="WW" to="CS"/>
    <trip id="c773" type="cyclist" depart="3159.00" from="SS" to="CE"/>
    <trip id="c774" type="cyclist" depart="3168.00" from="EE" to="CN"/>
    <trip id="c776" type="cyclist" depart="3177.00" from="EE" to="CN"/>
    <trip id="c777" type="cyclist" depart="3183.00" from="EE" to="CN"/>
    <trip id="c780" type="cyclist" depart="3189.00" from="EE" to="CW"/>
    <trip id="c781" type="cyclist" depart="3192.00" from="WW" to="CE"/>
    <trip id="c782" type="cyclist" depart="3193.00" from="EE" to="CW"/>
    <trip id="c783" type="cyclist" depart="3195.00" from="SS" to="CN"/>
    <trip id="c784" type="cyclist" depart="3197.00" from="SS" to="CN"/>
    <trip id="c787" type="cyclist" depart="3213.00" from="WW" to="CS"/>
    <trip id="c790" type="cyclist" depart="3224.00" from="EE" to="CN"/>