<?xml version="1.0" encoding="UTF-8"?>
<!-- generated on 2021-08-31 17:19:25.468483 by $Id$ v1_7_0+1095-7111e26d53
  options: -n ../networks/cross6_LFR_exits.net.xml -o pedestrians_p_5.rou.xml <doubleminus>pedestrians <doubleminus>max-distance 100 <doubleminus>period 5
-->
<routes xmlns:xsi="http://www.w3.org/2001/XMLSchema-instance" xsi:noNamespaceSchemaLocation="http://sumo.dlr.de/xsd/routes_file.xsd">
    <person id="0" depart="0.00">
        <walk from="CW" to="CS"/>
    </person>
    <person id="1" depart="5.00">
        <walk from="SC" to="SC"/>
    </person>
    <person id="2" depart="10.00">
        <walk from="WC" to="CN"/>
    </person>
    <person id="3" depart="15.00">
        <walk from="CS" to="NC"/>
    </person>
    <person id="4" depart="20.00">
        <walk from="CE" to="CS"/>
    </person>
    <person id="5" depart="25.00">
        <walk from="EC" to="CN"/>
    </person>
    <person id="6" depart="30.00">
        <walk from="CN" to="CN"/>
    </person>
    <person id="7" depart="35.00">
        <walk from="SC" to="CE"/>
    </person>
    <person id="8" depart="40.00">
        <walk from="CS" to="CW"/>
    </person>
    <person id="9" depart="45.00">
        <walk from="CE" to="CS"/>
    </person>
    <person id="10" depart="50.00">
        <walk from="CN" to="CW"/>
    </person>
    <person id="11" depart="55.00">
        <walk from="EC" to="CS"/>
    </person>
    <person id="12" depart="60.00">
        <walk from="NN" to="NN"/>
    </person>
    <person id="13" depart="65.00">
        <walk from="CS" to="SC"/>
    </person>
    <person id="14" depart="70.00">
        <walk from="CN" to="EC"/>
    </person>
    <person id="15" depart="75.00">
        <walk from="CS" to="CE"/>
    </person>
    <person id="16" depart="80.00">
        <walk from="CW" to="CW"/>
    </person>
    <person id="17" depart="85.00">
        <walk from="WC" to="CW"/>
    </person>
    <person id="18" depart="90.00">
        <walk from="CW" to="CS"/>
    </person>
    <person id="19" depart="95.00">
        <walk from="NC" to="CW"/>
    </person>
    <person id="20" depart="100.00">
        <walk from="EC" to="CS"/>
    </person>
    <person id="21" depart="105.00">
        <walk from="CN" to="CE"/>
    </person>
    <person id="22" depart="110.00">
        <walk from="CE" to="EC"/>
    </person>
    <person id="23" depart="115.00">
        <walk from="CE" to="SC"/>
    </person>
    <person id="24" depart="120.00">
        <walk from="WC" to="CW"/>
    </person>
    <person id="25" depart="125.00">
        <walk from="NC" to="CS"/>
    </person>
    <person id="26" depart="130.00">
        <walk from="WC" to="WC"/>
    </person>
    <person id="27" depart="135.00">
        <walk from="CE" to="CW"/>
    </person>
    <person id="28" depart="140.00">
        <walk from="CW" to="CE"/>
    </person>
    <person id="29" depart="145.00">
        <walk from="CW" to="WC"/>
    </person>
    <person id="30" depart="150.00">
        <walk from="CS" to="CW"/>
    </person>
    <person id="31" depart="155.00">
        <walk from="CN" to="CS"/>
    </person>
    <person id="32" depart="160.00">
        <walk from="CS" to="CS"/>
    </person>
    <person id="33" depart="165.00">
        <walk from="CS" to="WC"/>
    </person>
    <person id="34" depart="170.00">
        <walk from="WC" to="CE"/>
    </person>
    <person id="35" depart="175.00">
        <walk from="CS" to="SC"/>
    </person>
    <person id="36" depart="180.00">
        <walk from="CS" to="CN"/>
    </person>
    <person id="37" depart="185.00">
        <walk from="EE" to="EE"/>
    </person>
    <person id="38" depart="190.00">
        <walk from="SC" to="SC"/>
    </person>
    <person id="39" depart="195.00">
        <walk from="EC" to="EC"/>
    </person>
    <person id="40" depart="200.00">
        <walk from="WC" to="CS"/>
    </person>
    <person id="41" depart="205.00">
        <walk from="NC" to="CE"/>
    </person>
    <person id="42" depart="210.00">
        <walk from="WW" to="WW"/>
    </person>
    <person id="43" depart="215.00">
        <walk from="WC" to="CN"/>
    </person>
    <person id="44" depart="220.00">
        <walk from="EC" to="CE"/>
    </person>
    <person id="45" depart="225.00">
        <walk from="EE" to="EE"/>
    </person>
    <person id="46" depart="230.00">
        <walk from="WW" to="WW"/>
    </person>
    <person id="47" depart="235.00">
        <walk from="CN" to="CW"/>
    </person>
    <person id="48" depart="240.00">
        <walk from="CE" to="CS"/>
    </person>
    <person id="49" depart="245.00">
        <walk from="CS" to="CN"/>
    </person>
    <person id="50" depart="250.00">
        <walk from="WC" to="CS"/>
    </person>
    <person id="51" depart="255.00">
        <walk from="NN" to="NN"/>
    </person>
    <person id="52" depart="260.00">
        <walk from="CS" to="SC"/>
    </person>
    <person id="53" depart="265.00">
        <walk from="CS" to="EC"/>
    </person>
    <person id="54" depart="270.00">
        <walk from="SC" to="CW"/>
    </person>
    <person id="55" depart="275.00">
        <walk from="WW" to="WW"/>
    </person>
    <person id="56" depart="280.00">
        <walk from="CE" to="CS"/>
    </person>
    <person id="57" depart="285.00">
        <walk from="WC" to="WC"/>
    </person>
    <person id="58" depart="290.00">
        <walk from="EC" to="CN"/>
    </person>
    <person id="59" depart="295.00">
        <walk from="CN" to="CN"/>
    </person>
    <person id="60" depart="300.00">
        <walk from="CN" to="NC"/>
    </person>
    <person id="61" depart="305.00">
        <walk from="SC" to="CS"/>
    </person>
    <person id="62" depart="310.00">
        <walk from="WC" to="CN"/>
    </person>
    <person id="63" depart="315.00">
        <walk from="CE" to="WC"/>
    </person>
    <person id="64" depart="320.00">
        <walk from="CN" to="CN"/>
    </person>
    <person id="65" depart="325.00">
        <walk from="CW" to="WC"/>
    </person>
    <person id="66" depart="330.00">
        <walk from="WC" to="CS"/>
    </person>
    <person id="67" depart="335.00">
        <walk from="CS" to="CN"/>
    </person>
    <person id="68" depart="340.00">
        <walk from="CE" to="SC"/>
    </person>
    <person id="69" depart="345.00">
        <walk from="WC" to="WC"/>
    </person>
    <person id="70" depart="350.00">
        <walk from="CE" to="CS"/>
    </person>
    <person id="71" depart="355.00">
        <walk from="CW" to="WC"/>
    </person>
    <person id="72" depart="360.00">
        <walk from="SC" to="CW"/>
    </person>
    <person id="73" depart="365.00">
        <walk from="CW" to="SC"/>
    </person>
    <person id="74" depart="370.00">
        <walk from="SC" to="SC"/>
    </person>
    <person id="75" depart="375.00">
        <walk from="EC" to="CE"/>
    </person>
    <person id="76" depart="380.00">
        <walk from="CW" to="WC"/>
    </person>
    <person id="77" depart="385.00">
        <walk from="SC" to="CW"/>
    </person>
    <person id="78" depart="390.00">
        <walk from="CW" to="EC"/>
    </person>
    <person id="79" depart="395.00">
        <walk from="EC" to="CW"/>
    </person>
    <person id="80" depart="400.00">
        <walk from="CW" to="NC"/>
    </person>
    <person id="81" depart="405.00">
        <walk from="CE" to="CW"/>
    </person>
    <person id="82" depart="410.00">
        <walk from="CN" to="NC"/>
    </person>
    <person id="83" depart="415.00">
        <walk from="SS" to="SS"/>
    </person>
    <person id="84" depart="420.00">
        <walk from="SC" to="CS"/>
    </person>
    <person id="85" depart="425.00">
        <walk from="CS" to="CE"/>
    </person>
    <person id="86" depart="430.00">
        <walk from="WC" to="CE"/>
    </person>
    <person id="87" depart="435.00">
        <walk from="CS" to="SC"/>
    </person>
    <person id="88" depart="440.00">
        <walk from="SS" to="SS"/>
    </person>
    <person id="89" depart="445.00">
        <walk from="NC" to="CE"/>
    </person>
    <person id="90" depart="450.00">
        <walk from="CS" to="WC"/>
    </person>
    <person id="91" depart="455.00">
        <walk from="CE" to="CW"/>
    </person>
    <person id="92" depart="460.00">
        <walk from="CW" to="CW"/>
    </person>
    <person id="93" depart="465.00">
        <walk from="NC" to="CN"/>
    </person>
    <person id="94" depart="470.00">
        <walk from="CS" to="SC"/>
    </person>
    <person id="95" depart="475.00">
        <walk from="SC" to="CE"/>
    </person>
    <person id="96" depart="480.00">
        <walk from="EC" to="CS"/>
    </person>
    <person id="97" depart="485.00">
        <walk from="EC" to="CE"/>
    </person>
    <person id="98" depart="490.00">
        <walk from="CS" to="CS"/>
    </person>
    <person id="99" depart="495.00">
        <walk from="EC" to="CN"/>
    </person>
    <person id="100" depart="500.00">
        <walk from="CE" to="EC"/>
    </person>
    <person id="101" depart="505.00">
        <walk from="CS" to="CW"/>
    </person>
    <person id="102" depart="510.00">
        <walk from="SS" to="SS"/>
    </person>
    <person id="103" depart="515.00">
        <walk from="CW" to="CE"/>
    </person>
    <person id="104" depart="520.00">
        <walk from="CE" to="NC"/>
    </person>
    <person id="105" depart="525.00">
        <walk from="CE" to="CN"/>
    </person>
    <person id="106" depart="530.00">
        <walk from="CN" to="SC"/>
    </person>
    <person id="107" depart="535.00">
        <walk from="NC" to="CS"/>
    </person>
    <person id="108" depart="540.00">
        <walk from="SC" to="CN"/>
    </person>
    <person id="109" depart="545.00">
        <walk from="CN" to="CE"/>
    </person>
    <person id="110" depart="550.00">
        <walk from="CW" to="SC"/>
    </person>
    <person id="111" depart="555.00">
        <walk from="SC" to="CE"/>
    </person>
    <person id="112" depart="560.00">
        <walk from="CW" to="WC"/>
    </person>
    <person id="113" depart="565.00">
        <walk from="WC" to="CS"/>
    </person>
    <person id="114" depart="570.00">
        <walk from="EC" to="CE"/>
    </person>
    <person id="115" depart="575.00">
        <walk from="WC" to="CS"/>
    </person>
    <person id="116" depart="580.00">
        <walk from="SC" to="CW"/>
    </person>
    <person id="117" depart="585.00">
        <walk from="CN" to="SC"/>
    </person>
    <person id="118" depart="590.00">
        <walk from="CN" to="CS"/>
    </person>
    <person id="119" depart="595.00">
        <walk from="SC" to="CW"/>
    </person>
    <person id="120" depart="600.00">
        <walk from="SC" to="CW"/>
    </person>
    <person id="121" depart="605.00">
        <walk from="SC" to="CW"/>
    </person>
    <person id="122" depart="610.00">
        <walk from="CW" to="CN"/>
    </person>
    <person id="123" depart="615.00">
        <walk from="CS" to="CN"/>
    </person>
    <person id="124" depart="620.00">
        <walk from="CS" to="CS"/>
    </person>
    <person id="125" depart="625.00">
        <walk from="CW" to="CN"/>
    </person>
    <person id="126" depart="630.00">
        <walk from="CS" to="CS"/>
    </person>
    <person id="127" depart="635.00">
        <walk from="CS" to="CE"/>
    </person>
    <person id="128" depart="640.00">
        <walk from="NC" to="CW"/>
    </person>
    <person id="129" depart="645.00">
        <walk from="SC" to="CN"/>
    </person>
    <person id="130" depart="650.00">
        <walk from="EE" to="EE"/>
    </person>
    <person id="131" depart="655.00">
        <walk from="CS" to="CE"/>
    </person>
    <person id="132" depart="660.00">
        <walk from="CE" to="CN"/>
    </person>
    <person id="133" depart="665.00">
        <walk from="NC" to="CW"/>
    </person>
    <person id="134" depart="670.00">
        <walk from="NN" to="NN"/>
    </person>
    <person id="135" depart="675.00">
        <walk from="CS" to="CS"/>
    </person>
    <person id="136" depart="680.00">
        <walk from="CS" to="CE"/>
    </person>
    <person id="137" depart="685.00">
        <walk from="CS" to="SC"/>
    </person>
    <person id="138" depart="690.00">
        <walk from="CN" to="CW"/>
    </person>
    <person id="139" depart="695.00">
        <walk from="CW" to="CN"/>
    </person>
    <person id="140" depart="700.00">
        <walk from="SC" to="SC"/>
    </person>
    <person id="141" depart="705.00">
        <walk from="CW" to="CW"/>
    </person>
    <person id="142" depart="710.00">
        <walk from="WW" to="WW"/>
    </person>
    <person id="143" depart="715.00">
        <walk from="SC" to="CW"/>
    </person>
    <person id="144" depart="720.00">
        <walk from="WC" to="CS"/>
    </person>
    <person id="145" depart="725.00">
        <walk from="NN" to="NN"/>
    </person>
    <person id="146" depart="730.00">
        <walk from="EC" to="CW"/>
    </person>
    <person id="147" depart="735.00">
        <walk from="CW" to="SC"/>
    </person>
    <person id="148" depart="740.00">
        <walk from="CS" to="EC"/>
    </person>
    <person id="149" depart="745.00">
        <walk from="CN" to="NC"/>
    </person>
    <person id="150" depart="750.00">
        <walk from="NC" to="CN"/>
    </person>
    <person id="151" depart="755.00">
        <walk from="CW" to="WC"/>
    </person>
    <person id="152" depart="760.00">
        <walk from="WC" to="WC"/>
    </person>
    <person id="153" depart="765.00">
        <walk from="CW" to="CW"/>
    </person>
    <person id="154" depart="770.00">
        <walk from="NC" to="NC"/>
    </person>
    <person id="155" depart="775.00">
        <walk from="CS" to="SC"/>
    </person>
    <person id="156" depart="780.00">
        <walk from="NC" to="CS"/>
    </person>
    <person id="157" depart="785.00">
        <walk from="SC" to="SC"/>
    </person>
    <person id="158" depart="790.00">
        <walk from="CE" to="NC"/>
    </person>
    <person id="159" depart="795.00">
        <walk from="WC" to="WC"/>
    </person>
    <person id="160" depart="800.00">
        <walk from="EC" to="CW"/>
    </person>
    <person id="161" depart="805.00">
        <walk from="WC" to="CE"/>
    </person>
    <person id="162" depart="810.00">
        <walk from="WW" to="WW"/>
    </person>
    <person id="163" depart="815.00">
        <walk from="CW" to="EC"/>
    </person>
    <person id="164" depart="820.00">
        <walk from="CN" to="NC"/>
    </person>
    <person id="165" depart="825.00">
        <walk from="CS" to="CE"/>
    </person>
    <person id="166" depart="830.00">
        <walk from="CS" to="WC"/>
    </person>
    <person id="167" depart="835.00">
        <walk from="CW" to="CW"/>
    </person>
    <person id="168" depart="840.00">
        <walk from="CW" to="WC"/>
    </person>
    <person id="169" depart="845.00">
        <walk from="CS" to="EC"/>
    </person>
    <person id="170" depart="850.00">
        <walk from="NC" to="NC"/>
    </person>
    <person id="171" depart="855.00">
        <walk from="CW" to="NC"/>
    </person>
    <person id="172" depart="860.00">
        <walk from="SC" to="SC"/>
    </person>
    <person id="173" depart="865.00">
        <walk from="NN" to="NN"/>
    </person>
    <person id="174" depart="870.00">
        <walk from="SC" to="SC"/>
    </person>
    <person id="175" depart="875.00">
        <walk from="SC" to="CN"/>
    </person>
    <person id="176" depart="880.00">
        <walk from="CW" to="SC"/>
    </person>
    <person id="177" depart="885.00">
        <walk from="CS" to="CN"/>
    </person>
    <person id="178" depart="890.00">
        <walk from="EC" to="CN"/>
    </person>
    <person id="179" depart="895.00">
        <walk from="CE" to="NC"/>
    </person>
    <person id="180" depart="900.00">
        <walk from="CN" to="CS"/>
    </person>
    <person id="181" depart="905.00">
        <walk from="CE" to="WC"/>
    </person>
    <person id="182" depart="910.00">
        <walk from="CS" to="CE"/>
    </person>
    <person id="183" depart="915.00">
        <walk from="CW" to="EC"/>
    </person>
    <person id="184" depart="920.00">
        <walk from="CN" to="WC"/>
    </person>
    <person id="185" depart="925.00">
        <walk from="SC" to="SC"/>
    </person>
    <person id="186" depart="930.00">
        <walk from="SC" to="CN"/>
    </person>
    <person id="187" depart="935.00">
        <walk from="EC" to="CN"/>
    </person>
    <person id="188" depart="940.00">
        <walk from="CN" to="SC"/>
    </person>
    <person id="189" depart="945.00">
        <walk from="EC" to="EC"/>
    </person>
    <person id="190" depart="950.00">
        <walk from="CS" to="CN"/>
    </person>
    <person id="191" depart="955.00">
        <walk from="NN" to="NN"/>
    </person>
    <person id="192" depart="960.00">
        <walk from="CN" to="NC"/>
    </person>
    <person id="193" depart="965.00">
        <walk from="CS" to="CS"/>
    </person>
    <person id="194" depart="970.00">
        <walk from="WC" to="CW"/>
    </person>
    <person id="195" depart="975.00">
        <walk from="CN" to="WC"/>
    </person>
    <person id="196" depart="980.00">
        <walk from="CE" to="WC"/>
    </person>
    <person id="197" depart="985.00">
        <walk from="CN" to="CN"/>
    </person>
    <person id="198" depart="990.00">
        <walk from="CW" to="CS"/>
    </person>
    <person id="199" depart="995.00">
        <walk from="CS" to="CW"/>
    </person>
    <person id="200" depart="1000.00">
        <walk from="CS" to="CE"/>
    </person>
    <person id="201" depart="1005.00">
        <walk from="CN" to="NC"/>
    </person>
    <person id="202" depart="1010.00">
        <walk from="WC" to="CE"/>
    </person>
    <person id="203" depart="1015.00">
        <walk from="CE" to="CW"/>
    </person>
    <person id="204" depart="1020.00">
        <walk from="SC" to="CS"/>
    </person>
    <person id="205" depart="1025.00">
        <walk from="EC" to="CN"/>
    </person>
    <person id="206" depart="1030.00">
        <walk from="EC" to="CN"/>
    </person>
    <person id="207" depart="1035.00">
        <walk from="CN" to="SC"/>
    </person>
    <person id="208" depart="1040.00">
        <walk from="CW" to="CN"/>
    </person>
    <person id="209" depart="1045.00">
        <walk from="NC" to="CS"/>
    </person>
    <person id="210" depart="1050.00">
        <walk from="CN" to="WC"/>
    </person>
    <person id="211" depart="1055.00">
        <walk from="CW" to="CS"/>
    </person>
    <person id="212" depart="1060.00">
        <walk from="SC" to="CW"/>
    </person>
    <person id="213" depart="1065.00">
        <walk from="EC" to="CE"/>
    </person>
    <person id="214" depart="1070.00">
        <walk from="EC" to="CN"/>
    </person>
    <person id="215" depart="1075.00">
        <walk from="SC" to="CS"/>
    </person>
    <person id="216" depart="1080.00">
        <walk from="CN" to="CE"/>
    </person>
    <person id="217" depart="1085.00">
        <walk from="SC" to="CW"/>
    </person>
    <person id="218" depart="1090.00">
        <walk from="SC" to="CE"/>
    </person>
    <person id="219" depart="1095.00">
        <walk from="CE" to="CW"/>
    </person>
    <person id="220" depart="1100.00">
        <walk from="CS" to="CN"/>
    </person>
    <person id="221" depart="1105.00">
        <walk from="CW" to="CW"/>
    </person>
    <person id="222" depart="1110.00">
        <walk from="CE" to="SC"/>
    </person>
    <person id="223" depart="1115.00">
        <walk from="CS" to="EC"/>
    </person>
    <person id="224" depart="1120.00">
        <walk from="CE" to="WC"/>
    </person>
    <person id="225" depart="1125.00">
        <walk from="CE" to="CE"/>
    </person>
    <person id="226" depart="1130.00">
        <walk from="NC" to="NC"/>
    </person>
    <person id="227" depart="1135.00">
        <walk from="CN" to="CE"/>
    </person>
    <person id="228" depart="1140.00">
        <walk from="WC" to="CS"/>
    </person>
    <person id="229" depart="1145.00">
        <walk from="EC" to="CW"/>
    </person>
    <person id="230" depart="1150.00">
        <walk from="EC" to="CW"/>
    </person>
    <person id="231" depart="1155.00">
        <walk from="CS" to="NC"/>
    </person>
    <person id="232" depart="1160.00">
        <walk from="CN" to="NC"/>
    </person>
    <person id="233" depart="1165.00">
        <walk from="CN" to="CS"/>
    </person>
    <person id="234" depart="1170.00">
        <walk from="SS" to="SS"/>
    </person>
    <person id="235" depart="1175.00">
        <walk from="CW" to="CW"/>
    </person>
    <person id="236" depart="1180.00">
        <walk from="CE" to="NC"/>
    </person>
    <person id="237" depart="1185.00">
        <walk from="CE" to="WC"/>
    </person>
    <person id="238" depart="1190.00">
        <walk from="CN" to="CE"/>
    </person>
    <person id="239" depart="1195.00">
        <walk from="CN" to="WC"/>
    </person>
    <person id="240" depart="1200.00">
        <walk from="NC" to="CS"/>
    </person>
    <person id="241" depart="1205.00">
        <walk from="CN" to="EC"/>
    </person>
    <person id="242" depart="1210.00">
        <walk from="CW" to="EC"/>
    </person>
    <person id="243" depart="1215.00">
        <walk from="CE" to="CN"/>
    </person>
    <person id="244" depart="1220.00">
        <walk from="SC" to="CW"/>
    </person>
    <person id="245" depart="1225.00">
        <walk from="WC" to="WC"/>
    </person>
    <person id="246" depart="1230.00">
        <walk from="CN" to="EC"/>
    </person>
    <person id="247" depart="1235.00">
        <walk from="EC" to="EC"/>
    </person>
    <person id="248" depart="1240.00">
        <walk from="CS" to="CS"/>
    </person>
    <person id="249" depart="1245.00">
        <walk from="CS" to="CN"/>
    </person>
    <person id="250" depart="1250.00">
        <walk from="CE" to="WC"/>
    </person>
    <person id="251" depart="1255.00">
        <walk from="WC" to="WC"/>
    </person>
    <person id="252" depart="1260.00">
        <walk from="CE" to="EC"/>
    </person>
    <person id="253" depart="1265.00">
        <walk from="EC" to="CN"/>
    </person>
    <person id="254" depart="1270.00">
        <walk from="SS" to="SS"/>
    </person>
    <person id="255" depart="1275.00">
        <walk from="SC" to="CS"/>
    </person>
    <person id="256" depart="1280.00">
        <walk from="NC" to="CW"/>
    </person>
    <person id="257" depart="1285.00">
        <walk from="WW" to="WW"/>
    </person>
    <person id="258" depart="1290.00">
        <walk from="CN" to="WC"/>
    </person>
    <person id="259" depart="1295.00">
        <walk from="WC" to="CW"/>
    </person>
    <person id="260" depart="1300.00">
        <walk from="WC" to="CN"/>
    </person>
    <person id="261" depart="1305.00">
        <walk from="EC" to="CE"/>
    </person>
    <person id="262" depart="1310.00">
        <walk from="CE" to="NC"/>
    </person>
    <person id="263" depart="1315.00">
        <walk from="EC" to="CE"/>
    </person>
    <person id="264" depart="1320.00">
        <walk from="CN" to="CW"/>
    </person>
    <person id="265" depart="1325.00">
        <walk from="CN" to="SC"/>
    </person>
    <person id="266" depart="1330.00">
        <walk from="CE" to="CW"/>
    </person>
    <person id="267" depart="1335.00">
        <walk from="CN" to="CW"/>
    </person>
    <person id="268" depart="1340.00">
        <walk from="CW" to="CE"/>
    </person>
    <person id="269" depart="1345.00">
        <walk from="CE" to="NC"/>
    </person>
    <person id="270" depart="1350.00">
        <walk from="CS" to="CN"/>
    </person>
    <person id="271" depart="1355.00">
        <walk from="CS" to="EC"/>
    </person>
    <person id="272" depart="1360.00">
        <walk from="NC" to="NC"/>
    </person>
    <person id="273" depart="1365.00">
        <walk from="CW" to="CE"/>
    </person>
    <person id="274" depart="1370.00">
        <walk from="CW" to="CE"/>
    </person>
    <person id="275" depart="1375.00">
        <walk from="CE" to="CS"/>
    </person>
    <person id="276" depart="1380.00">
        <walk from="NC" to="CW"/>
    </person>
    <person id="277" depart="1385.00">
        <walk from="WC" to="CW"/>
    </person>
    <person id="278" depart="1390.00">
        <walk from="CN" to="EC"/>
    </person>
    <person id="279" depart="1395.00">
        <walk from="SC" to="CE"/>
    </person>
    <person id="280" depart="1400.00">
        <walk from="NC" to="CW"/>
    </person>
    <person id="281" depart="1405.00">
        <walk from="EC" to="CE"/>
    </person>
    <person id="282" depart="1410.00">
        <walk from="WW" to="WW"/>
    </person>
    <person id="283" depart="1415.00">
        <walk from="EC" to="EC"/>
    </person>
    <person id="284" depart="1420.00">
        <walk from="NC" to="NC"/>
    </person>
    <person id="285" depart="1425.00">
        <walk from="CS" to="CN"/>
    </person>
    <person id="286" depart="1430.00">
        <walk from="CW" to="CW"/>
    </person>
    <person id="287" depart="1435.00">
        <walk from="CW" to="WC"/>
    </person>
    <person id="288" depart="1440.00">
        <walk from="CN" to="SC"/>
    </person>
    <person id="289" depart="1445.00">
        <walk from="WC" to="CW"/>
    </person>
    <person id="290" depart="1450.00">
        <walk from="EC" to="CE"/>
    </person>
    <person id="291" depart="1455.00">
        <walk from="CN" to="CS"/>
    </person>
    <person id="292" depart="1460.00">
        <walk from="CE" to="NC"/>
    </person>
    <person id="293" depart="1465.00">
        <walk from="CN" to="CW"/>
    </person>
    <person id="294" depart="1470.00">
        <walk from="CE" to="CN"/>
    </person>
    <person id="295" depart="1475.00">
        <walk from="CN" to="CN"/>
    </person>
    <person id="296" depart="1480.00">
        <walk from="CW" to="SC"/>
    </person>
    <person id="297" depart="1485.00">
        <walk from="WC" to="WC"/>
    </person>
    <person id="298" depart="1490.00">
        <walk from="NC" to="CN"/>
    </person>
    <person id="299" depart="1495.00">
        <walk from="CW" to="NC"/>
    </person>
    <person id="300" depart="1500.00">
        <walk from="NC" to="CS"/>
    </person>
    <person id="301" depart="1505.00">
        <walk from="CE" to="CE"/>
    </person>
    <person id="302" depart="1510.00">
        <walk from="SC" to="CW"/>
    </person>
    <person id="303" depart="1515.00">
        <walk from="CE" to="CE"/>
    </person>
    <person id="304" depart="1520.00">
        <walk from="EE" to="EE"/>
    </person>
    <person id="305" depart="1525.00">
        <walk from="CW" to="SC"/>
    </person>
    <person id="306" depart="1530.00">
        <walk from="CW" to="CS"/>
    </person>
    <person id="307" depart="1535.00">
        <walk from="CN" to="CW"/>
    </person>
    <person id="308" depart="1540.00">
        <walk from="CS" to="WC"/>
    </person>
    <person id="309" depart="1545.00">
        <walk from="CN" to="CW"/>
    </person>
    <person id="310" depart="1550.00">
        <walk from="NC" to="CW"/>
    </person>
    <person id="311" depart="1555.00">
        <walk from="CW" to="CE"/>
    </person>
    <person id="312" depart="1560.00">
        <walk from="EC" to="CE"/>
    </person>
    <person id="313" depart="1565.00">
        <walk from="EC" to="EC"/>
    </person>
    <person id="314" depart="1570.00">
        <walk from="NC" to="CS"/>
    </person>
    <person id="315" depart="1575.00">
        <walk from="NC" to="CE"/>
    </person>
    <person id="316" depart="1580.00">
        <walk from="SC" to="CN"/>
    </person>
    <person id="317" depart="1585.00">
        <walk from="CS" to="NC"/>
    </person>
    <person id="318" depart="1590.00">
        <walk from="NC" to="CE"/>
    </person>
    <person id="319" depart="1595.00">
        <walk from="CN" to="CW"/>
    </person>
    <person id="320" depart="1600.00">
        <walk from="EE" to="EE"/>
    </person>
    <person id="321" depart="1605.00">
        <walk from="SC" to="CW"/>
    </person>
    <person id="322" depart="1610.00">
        <walk from="SC" to="CE"/>
    </person>
    <person id="323" depart="1615.00">
        <walk from="SS" to="SS"/>
    </person>
    <person id="324" depart="1620.00">
        <walk from="NN" to="NN"/>
    </person>
    <person id="325" depart="1625.00">
        <walk from="WC" to="CN"/>
    </person>
    <person id="326" depart="1630.00">
        <walk from="SC" to="CE"/>
    </person>
    <person id="327" depart="1635.00">
        <walk from="CE" to="CW"/>
    </person>
    <person id="328" depart="1640.00">
        <walk from="CN" to="SC"/>
    </person>
    <person id="329" depart="1645.00">
        <walk from="SC" to="CE"/>
    </person>
    <person id="330" depart="1650.00">
        <walk from="CN" to="CS"/>
    </person>
    <person id="331" depart="1655.00">
        <walk from="NC" to="CW"/>
    </person>
    <person id="332" depart="1660.00">
        <walk from="CS" to="WC"/>
    </person>
    <person id="333" depart="1665.00">
        <walk from="EC" to="EC"/>
    </person>
    <person id="334" depart="1670.00">
        <walk from="CS" to="NC"/>
    </person>
    <person id="335" depart="1675.00">
        <walk from="CW" to="CW"/>
    </person>
    <person id="336" depart="1680.00">
        <walk from="CS" to="SC"/>
    </person>
    <person id="337" depart="1685.00">
        <walk from="CW" to="EC"/>
    </person>
    <person id="338" depart="1690.00">
        <walk from="CW" to="CN"/>
    </person>
    <person id="339" depart="1695.00">
        <walk from="CW" to="CW"/>
    </person>
    <person id="340" depart="1700.00">
        <walk from="SC" to="CN"/>
    </person>
    <person id="341" depart="1705.00">
        <walk from="NN" to="NN"/>
    </person>
    <person id="342" depart="1710.00">
        <walk from="CS" to="SC"/>
    </person>
    <person id="343" depart="1715.00">
        <walk from="CE" to="EC"/>