<?xml version="1.0" encoding="UTF-8"?>

<!-- generated on Mon Aug 30 11:59:52 2021 by Eclipse SUMO duarouter Version v1_7_0+1095-7111e26d53
<configuration xmlns:xsi="http://www.w3.org/2001/XMLSchema-instance" xsi:noNamespaceSchemaLocation="http://sumo.dlr.de/xsd/duarouterConfiguration.xsd">

    <input>
        <net-file value="../networks/cross6_LFR_exits.net.xml"/>
        <route-files value="vehicles_bi_4_16.rou.xml"/>
    </input>

    <output>
        <output-file value="vehicles_bi_4_16.rou.xml.tmp"/>
        <write-trips value="true"/>
    </output>

    <time>
        <begin value="0"/>
        <end value="3600"/>
    </time>

    <report>
        <no-warnings value="true"/>
        <ignore-errors value="true"/>
        <no-step-log value="true"/>
    </report>

</configuration>
-->

<routes xmlns:xsi="http://www.w3.org/2001/XMLSchema-instance" xsi:noNamespaceSchemaLocation="http://sumo.dlr.de/xsd/routes_file.xsd">
    <trip id="v0" depart="1.00" from="WW" to="CS"/>
    <trip id="v1" depart="6.00" from="SS" to="CS"/>
    <trip id="v2" depart="7.00" from="NN" to="CE"/>
    <trip id="v3" depart="16.00" from="WW" to="CN"/>
    <trip id="v4" depart="17.00" from="WW" to="CS"/>
    <trip id="v5" depart="17.00" from="EE" to="CW"/>
    <trip id="v6" depart="22.00" from="WW" to="CS"/>
    <trip id="v7" depart="23.00" from="NN" to="CN"/>
    <trip id="v8" depart="25.00" from="WW" to="CW"/>
    <trip id="v9" depart="28.00" from="NN" to="CW"/>
    <trip id="v10" depart="36.00" from="WW" to="CE"/>
    <trip id="v11" depart="38.00" from="SS" to="CN"/>
    <trip id="v12" depart="41.00" from="NN" to="CS"/>
    <trip id="v13" depart="53.00" from="WW" to="CW"/>
    <trip id="v14" depart="58.00" from="SS" to="CN"/>
    <trip id="v15" depart="62.00" from="WW" to="CE"/>
    <trip id="v16" depart="62.00" from="WW" to="CE"/>
    <trip id="v17" depart="68.00" from="WW" to="CS"/>
    <trip id="v18" depart="70.00" from="NN" to="CE"/>
    <trip id="v19" depart="71.00" from="SS" to="CE"/>
    <trip id="v20" depart="84.00" from="EE" to="CN"/>
    <trip id="v21" depart="110.00" from="SS" to="CW"/>
    <trip id="v22" depart="112.00" from="SS" to="CE"/>
    <trip id="v23" depart="114.00" from="SS" to="CS"/>
    <trip id="v24" depart="119.00" from="EE" to="CN"/>
    <trip id="v25" depart="125.00" from="WW" to="CW"/>
    <trip id="v26" depart="128.00" from="SS" to="CN"/>
    <trip id="v27" depart="129.00" from="SS" to="CE"/>
    <trip id="v28" depart="131.00" from="EE" to="CN"/>
    <trip id="v29" depart="135.00" from="NN" to="CN"/>
    <trip id="v30" depart="141.00" from="NN" to="CS"/>
    <trip id="v31" depart="147.00" from="EE" to="CW"/>
    <trip id="v32" depart="153.00" from="WW" to="CS"/>
    <trip id="v33" depart="154.00" from="WW" to="CE"/>
    <trip id="v34" depart="155.00" from="NN" to="CE"/>
    <trip id="v35" depart="156.00" from="SS" to="CW"/>
    <trip id="v36" depart="157.00" from="SS" to="CN"/>
    <trip id="v37" depart="166.00" from="EE" to="CS"/>
    <trip id="v38" depart="167.00" from="NN" to="CE"/>
    <trip id="v39" depart="167.00" from="SS" to="CW"/>
    <trip id="v40" depart="171.00" from="WW" to="CW"/>
    <trip id="v41" depart="177.00" from="WW" to="CE"/>
    <trip id="v42" depart="181.00" from="NN" to="CS"/>
    <trip id="v43" depart="195.00" from="WW" to="CS"/>
    <trip id="v44" depart="195.00" from="NN" to="CW"/>
    <trip id="v45" depart="201.00" from="NN" to="CW"/>
    <trip id="v46" depart="202.00" from="NN" to="CW"/>
    <trip id="v47" depart="207.00" from="SS" to="CW"/>
    <trip id="v48" depart="213.00" from="EE" to="CS"/>
    <trip id="v49" depart="222.00" from="NN" to="CS"/>
    <trip id="v50" depart="225.00" from="SS" to="CN"/>
    <trip id="v51" depart="227.00" from="EE" to="CS"/>
    <trip id="v52" depart="231.00" from="SS" to="CS"/>
    <trip id="v53" depart="233.00" from="EE" to="CE"/>
    <trip id="v54" depart="245.00" from="SS" to="CS"/>
    <trip id="v55" depart="247.00" from="EE" to="CE"/>
    <trip id="v56" depart="249.00" from="EE" to="CW"/>
    <trip id="v57" depart="252.00" from="WW" to="CE"/>
    <trip id="v58" depart="255.00" from="EE" to="CS"/>
    <trip id="v59" depart="264.00" from="WW" to="CW"/>
    <trip id="v60" depart="264.00" from="WW" to="CW"/>
    <trip id="v61" depart="264.00" from="NN" to="CN"/>
    <trip id="v62" depart="264.00" from="NN" to="CN"/>
    <trip id="v63" depart="270.00" from="EE" to="CW"/>
    <trip id="v64" depart="273.00" from="SS" to="CN"/>
    <trip id="v65" depart="282.00" from="WW" to="CN"/>
    <trip id="v66" depart="285.00" from="SS" to="CE"/>
    <trip id="v67" depart="287.00" from="NN" to="CN"/>
    <trip id="v68" depart="293.00" from="NN" to="CN"/>
    <trip id="v69" depart="299.00" from="WW" to="CE"/>
    <trip id="v70" depart="304.00" from="EE" to="CS"/>
    <trip id="v71" depart="304.00" from="EE" to="CN"/>
    <trip id="v72" depart="305.00" from="SS" to="CN"/>
    <trip id="v73" depart="309.00" from="WW" to="CS"/>
    <trip id="v74" depart="310.00" from="SS" to="CS"/>
    <trip id="v75" depart="317.00" from="EE" to="CE"/>
    <trip id="v76" depart="318.00" from="WW" to="CN"/>
    <trip id="v77" depart="325.00" from="EE" to="CE"/>
    <trip id="v78" depart="327.00" from="WW" to="CN"/>
    <trip id="v79" depart="329.00" from="EE" to="CE"/>
    <trip id="v80" depart="333.00" from="WW" to="CW"/>
    <trip id="v81" depart="340.00" from="EE" to="CE"/>
    <trip id="v82" depart="341.00" from="EE" to="CE"/>
    <trip id="v83" depart="346.00" from="WW" to="CE"/>
    <trip id="v84" depart="347.00" from="SS" to="CW"/>
    <trip id="v85" depart="356.00" from="SS" to="CW"/>
    <trip id="v86" depart="362.00" from="NN" to="CW"/>
    <trip id="v87" depart="365.00" from="SS" to="CN"/>
    <trip id="v88" depart="369.00" from="EE" to="CE"/>
    <trip id="v89" depart="396.00" from="EE" to="CN"/>
    <trip id="v90" depart="403.00" from="WW" to="CS"/>
    <trip id="v91" depart="409.00" from="EE" to="CE"/>
    <trip id="v92" depart="410.00" from="EE" to="CE"/>
    <trip id="v93" depart="412.00" from="SS" to="CS"/>
    <trip id="v94" depart="420.00" from="WW" to="CW"/>
    <trip id="v95" depart="421.00" from="NN" to="CS"/>
    <trip id="v96" depart="436.00" from="NN" to="CW"/>
    <trip id="v97" depart="436.00" from="WW" to="CN"/>
    <trip id="v98" depart="438.00" from="NN" to="CW"/>
    <trip id="v99" depart="440.00" from="NN" to="CW"/>
    <trip id="v100" depart="443.00" from="EE" to="CE"/>
    <trip id="v101" depart="447.00" from="NN" to="CW"/>
    <trip id="v102" depart="449.00" from="SS" to="CS"/>
    <trip id="v103" depart="450.00" from="EE" to="CE"/>
    <trip id="v104" depart="459.00" from="NN" to="CW"/>
    <trip id="v105" depart="461.00" from="WW" to="CW"/>
    <trip id="v106" depart="465.00" from="EE" to="CE"/>
    <trip id="v107" depart="468.00" from="EE" to="CW"/>
    <trip id="v108" depart="470.00" from="WW" to="CW"/>
    <trip id="v109" depart="477.00" from="WW" to="CE"/>
    <trip id="v110" depart="480.00" from="SS" to="CS"/>
    <trip id="v111" depart="483.00" from="WW" to="CS"/>
    <trip id="v112" depart="484.00" from="EE" to="CS"/>
    <trip id="v113" depart="486.00" from="SS" to="CW"/>
    <trip id="v114" depart="487.00" from="SS" to="CW"/>
    <trip id="v115" depart="494.00" from="EE" to="CS"/>
    <trip id="v116" depart="499.00" from="SS" to="CS"/>
    <trip id="v117" depart="504.00" from="NN" to="CW"/>
    <trip id="v118" depart="508.00" from="NN" to="CW"/>
    <trip id="v119" depart="510.00" from="SS" to="CE"/>
    <trip id="v120" depart="515.00" from="WW" to="CE"/>
    <trip id="v121" depart="523.00" from="SS" to="CW"/>
    <trip id="v122" depart="528.00" from="NN" to="CS"/>
    <trip id="v123" depart="533.00" from="WW" to="CW"/>
    <trip id="v124" depart="536.00" from="WW" to="CE"/>
    <trip id="v125" depart="539.00" from="WW" to="CE"/>
    <trip id="v126" depart="542.00" from="WW" to="CS"/>
    <trip id="v127" depart="545.00" from="NN" to="CN"/>
    <trip id="v128" depart="551.00" from="WW" to="CN"/>
    <trip id="v129" depart="555.00" from="WW" to="CS"/>
    <trip id="v130" depart="556.00" from="NN" to="CW"/>
    <trip id="v131" depart="557.00" from="WW" to="CE"/>
    <trip id="v132" depart="560.00" from="NN" to="CE"/>
    <trip id="v133" depart="561.00" from="EE" to="CN"/>
    <trip id="v134" depart="566.00" from="EE" to="CS"/>
    <trip id="v135" depart="571.00" from="NN" to="CN"/>
    <trip id="v136" depart="575.00" from="EE" to="CN"/>
    <trip id="v137" depart="578.00" from="EE" to="CW"/>
    <trip id="v138" depart="583.00" from="NN" to="CN"/>
    <trip id="v139" depart="585.00" from="NN" to="CS"/>
    <trip id="v140" depart="588.00" from="EE" to="CN"/>
    <trip id="v141" depart="589.00" from="NN" to="CN"/>
    <trip id="v142" depart="593.00" from="WW" to="CW"/>
    <trip id="v143" depart="594.00" from="NN" to="CS"/>
    <trip id="v144" depart="595.00" from="SS" to="CE"/>
    <trip id="v145" depart="597.00" from="NN" to="CS"/>
    <trip id="v146" depart="609.00" from="SS" to="CW"/>
    <trip id="v147" depart="616.00" from="WW" to="CW"/>
    <trip id="v148" depart="625.00" from="EE" to="CN"/>
    <trip id="v149" depart="630.00" from="WW" to="CE"/>
    <trip id="v150" depart="633.00" from="EE" to="CN"/>
    <trip id="v151" depart="634.00" from="EE" to="CS"/>
    <trip id="v152" depart="640.00" from="WW" to="CS"/>
    <trip id="v153" depart="644.00" from="SS" to="CW"/>
    <trip id="v154" depart="647.00" from="NN" to="CE"/>
    <trip id="v155" depart="653.00" from="NN" to="CS"/>
    <trip id="v156" depart="653.00" from="NN" to="CE"/>
    <trip id="v157" depart="657.00" from="NN" to="CN"/>
    <trip id="v158" depart="662.00" from="NN" to="CN"/>
    <trip id="v159" depart="665.00" from="EE" to="CW"/>
    <trip id="v160" depart="669.00" from="NN" to="CS"/>
    <trip id="v161" depart="677.00" from="NN" to="CN"/>
    <trip id="v162" depart="684.00" from="EE" to="CS"/>
    <trip id="v163" depart="690.00" from="WW" to="CN"/>
    <trip id="v164" depart="694.00" from="WW" to="CS"/>
    <trip id="v165" depart="706.00" from="WW" to="CE"/>
    <trip id="v166" depart="710.00" from="WW" to="CN"/>
    <trip id="v167" depart="714.00" from="WW" to="CE"/>
    <trip id="v168" depart="722.00" from="NN" to="CS"/>
    <trip id="v169" depart="724.00" from="EE" to="CN"/>
    <trip id="v170" depart="735.00" from="EE" to="CE"/>
    <trip id="v171" depart="740.00" from="SS" to="CS"/>
    <trip id="v172" depart="742.00" from="NN" to="CE"/>
    <trip id="v173" depart="750.00" from="WW" to="CE"/>
    <trip id="v174" depart="750.00" from="EE" to="CW"/>
    <trip id="v175" depart="763.00" from="WW" to="CE"/>
    <trip id="v176" depart="771.00" from="EE" to="CW"/>
    <trip id="v177" depart="772.00" from="WW" to="CE"/>
    <trip id="v178" depart="773.00" from="EE" to="CE"/>
    <trip id="v179" depart="775.00" from="SS" to="CE"/>
    <trip id="v180" depart="777.00" from="WW" to="CS"/>
    <trip id="v181" depart="779.00" from="NN" to="CE"/>
    <trip id="v182" depart="784.00" from="NN" to="CE"/>
    <trip id="v183" depart="790.00" from="SS" to="CS"/>
    <trip id="v184" depart="793.00" from="EE" to="CE"/>
    <trip id="v185" depart="793.00" from="NN" to="CE"/>
    <trip id="v186" depart="796.00" from="WW" to="CS"/>
    <trip id="v187" depart="802.00" from="WW" to="CS"/>
    <trip id="v188" depart="806.00" from="EE" to="CW"/>
    <trip id="v189" depart="808.00" from="WW" to="CW"/>
    <trip id="v190" depart="811.00" from="EE" to="CW"/>
    <trip id="v191" depart="811.00" from="WW" to="CE"/>
    <trip id="v192" depart="819.00" from="EE" to="CW"/>
    <trip id="v193" depart="821.00" from="NN" to="CS"/>
    <trip id="v194" depart="830.00" from="WW" to="CW"/>
    <trip id="v195" depart="831.00" from="NN" to="CW"/>
    <trip id="v196" depart="838.00" from="EE" to="CW"/>
    <trip id="v197" depart="843.00" from="SS" to="CN"/>
    <trip id="v198" depart="844.00" from="EE" to="CE"/>
    <trip id="v199" depart="849.00" from="WW" to="CW"/>
    <trip id="v200" depart="851.00" from="NN" to="CW"/>
    <trip id="v201" depart="856.00" from="EE" to="CW"/>
    <trip id="v202" depart="860.00" from="NN" to="CW"/>
    <trip id="v203" depart="866.00" from="SS" to="CN"/>
    <trip id="v204" depart="869.00" from="EE" to="CE"/>
    <trip id="v205" depart="874.00" from="WW" to="CN"/>
    <trip id="v206" depart="874.00" from="EE" to="CE"/>
    <trip id="v207" depart="878.00" from="SS" to="CW"/>
    <trip id="v208" depart="886.00" from="EE" to="CS"/>
    <trip id="v209" depart="888.00" from="NN" to="CE"/>
    <trip id="v210" depart="891.00" from="SS" to="CN"/>
    <trip id="v211" depart="899.00" from="EE" to="CW"/>
    <trip id="v212" depart="900.00" from="SS" to="CE"/>
    <trip id="v213" depart="911.00" from="NN" to="CN"/>
    <trip id="v214" depart="914.00" from="SS" to="CS"/>
    <trip id="v215" depart="925.00" from="SS" to="CE"/>
    <trip id="v216" depart="925.00" from="NN" to="CW"/>
    <trip id="v217" depart="931.00" from="SS" to="CS"/>
    <trip id="v218" depart="943.00" from="NN" to="CE"/>
    <trip id="v219" depart="944.00" from="NN" to="CS"/>
    <trip id="v220" depart="945.00" from="NN" to="CE"/>
    <trip id="v221" depart="945.00" from="EE" to="CE"/>
    <trip id="v222" depart="956.00" from="NN" to="CN"/>
    <trip id="v223" depart="960.00" from="SS" to="CW"/>
    <trip id="v224" depart="969.00" from="EE" to="CS"/>
    <trip id="v225" depart="971.00" from="EE" to="CW"/>
    <trip id="v226" depart="974.00" from="SS" to="CW"/>
    <trip id="v227" depart="978.00" from="EE" to="CW"/>
    <trip id="v228" depart="982.00" from="SS" to="CE"/>
    <trip id="v229" depart="992.00" from="WW" to="CN"/>
    <trip id="v230" depart="996.00" from="NN" to="CS"/>
    <trip id="v231" depart="997.00" from="WW" to="CN"/>
    <trip id="v232" depart="1002.00" from="WW" to="CW"/>
    <trip id="v233" depart="1004.00" from="SS" to="CW"/>
    <trip id="v234" depart="1008.00" from="EE" to="CW"/>
    <trip id="v235" depart="1009.00" from="EE" to="CN"/>
    <trip id="v236" depart="1012.00" from="SS" to="CW"/>
    <trip id="v237" depart="1013.00" from="WW" to="CW"/>
    <trip id="v238" depart="1015.00" from="WW" to="CS"/>
    <trip id="v239" depart="1015.00" from="WW" to="CW"/>
    <trip id="v240" depart="1020.00" from="EE" to="CS"/>
    <trip id="v241" depart="1023.00" from="WW" to="CN"/>
    <trip id="v242" depart="1030.00" from="EE" to="CE"/>
    <trip id="v243" depart="1033.00" from="NN" to="CW"/>
    <trip id="v244" depart="1033.00" from="SS" to="CS"/>
    <trip id="v245" depart="1033.00" from="NN" to="CW"/>
    <trip id="v246" depart="1036.00" from="NN" to="CN"/>
    <trip id="v247" depart="1038.00" from="WW" to="CS"/>
    <trip id="v248" depart="1041.00" from="NN" to="CE"/>
    <trip id="v249" depart="1046.00" from="EE" to="CS"/>
    <trip id="v250" depart="1046.00" from="EE" to="CE"/>
    <trip id="v251" depart="1052.00" from="SS" to="CN"/>
    <trip id="v252" depart="1068.00" from="NN" to="CN"/>
    <trip id="v253" depart="1074.00" from="SS" to="CE"/>
    <trip id="v254" depart="1076.00" from="EE" to="CN"/>
    <trip id="v255" depart="1077.00" from="SS" to="CS"/>
    <trip id="v256" depart="1081.00" from="NN" to="CS"/>
    <trip id="v257" depart="1087.00" from="WW" to="CS"/>
    <trip id="v258" depart="1096.00" from="WW" to="CE"/>
    <trip id="v259" depart="1104.00" from="SS" to="CE"/>
    <trip id="v260" depart="1111.00" from="WW" to="CE"/>
    <trip id="v261" depart="1111.00" from="WW" to="CE"/>
    <trip id="v262" depart="1115.00" from="EE" to="CW"/>
    <trip id="v263" depart="1115.00" from="SS" to="CN"/>
    <trip id="v264" depart="1120.00" from="WW" to="CS"/>
    <trip id="v265" depart="1123.00" from="NN" to="CN"/>
    <trip id="v266" depart="1127.00" from="WW" to="CS"/>
    <trip id="v267" depart="1133.00" from="WW" to="CW"/>
    <trip id="v268" depart="1139.00" from="WW" to="CN"/>
    <trip id="v269" depart="1145.00" from="NN" to="CS"/>
    <trip id="v270" depart="1149.00" from="WW" to="CS"/>
    <trip id="v271" depart="1154.00" from="WW" to="CN"/>
    <trip id="v272" depart="1155.00" from="EE" to="CN"/>
    <trip id="v273" depart="1157.00" from="EE" to="CS"/>
    <trip id="v274" depart="1161.00" from="WW" to="CE"/>
    <trip id="v275" depart="1165.00" from="NN" to="CS"/>
    <trip id="v276" depart="1168.00" from="NN" to="CE"/>
    <trip id="v277" depart="1168.00" from="NN" to="CE"/>
    <trip id="v278" depart="1174.00" from="EE" to="CE"/>
    <trip id="v279" depart="1175.00" from="WW" to="CE"/>
    <trip id="v280" depart="1176.00" from="SS" to="CS"/>
    <trip id="v281" depart="1179.00" from="NN" to="CN"/>
    <trip id="v282" depart="1186.00" from="NN" to="CS"/>
    <trip id="v283" depart="1192.00" from="SS" to="CE"/>
    <trip id="v284" depart="1194.00" from="WW" to="CN"/>
    <trip id="v285" depart="1197.00" from="EE" to="CE"/>
    <trip id="v286" depart="1197.00" from="EE" to="CN"/>
    <trip id="v287" depart="1199.00" from="WW" to="CS"/>
    <trip id="v288" depart="1200.00" from="SS" to="CS"/>
    <trip id="v289" depart="1202.00" from="WW" to="CE"/>
    <trip id="v290" depart="1203.00" from="WW" to="CS"/>
    <trip id="v291" depart="1210.00" from="SS" to="CN"/>
    <trip id="v292" depart="1213.00" from="EE" to="CS"/>
    <trip id="v293" depart="1218.00" from="EE" to="CS"/>
    <trip id="v294" depart="1221.00" from="SS" to="CW"/>
    <trip id="v295" depart="1222.00" from="SS" to="CE"/>
    <trip id="v296" depart="1223.00" from="EE" to="CN"/>
    <trip id="v297" depart="1225.00" from="SS" to="CN"/>
    <trip id="v298" depart="1238.00" from="EE" to="CW"/>
    <trip id="v299" depart="1239.00" from="SS" to="CE"/>
    <trip id="v300" depart="1240.00" from="WW" to="CS"/>
    <trip id="v301" depart="1244.00" from="NN" to="CS"/>
    <trip id="v302" depart="1248.00" from="SS" to="CN"/>
    <trip id="v303" depart="1253.00" from="EE" to="CW"/>
    <trip id="v304" depart="1256.00" from="NN" to="CS"/>
    <trip id="v305" depart="1257.00" from="SS" to="CW"/>
    <trip id="v306" depart="1258.00" from="WW" to="CW"/>
    <trip id="v307" depart="1261.00" from="EE" to="CE"/>
    <trip id="v308" depart="1262.00" from="EE" to="CS"/>
    <trip id="v309" depart="1264.00" from="WW" to="CN"/>
    <trip id="v310" depart="1267.00" from="NN" to="CE"/>
    <trip id="v311" depart="1275.00" from="EE" to="CW"/>
    <trip id="v312" depart="1275.00" from="NN" to="CN"/>
    <trip id="v313" depart="1277.00" from="NN" to="CN"/>
    <trip id="v314" depart="1279.00" from="NN" to="CS"/>
    <trip id="v315" depart="1280.00" from="EE" to="CW"/>
    <trip id="v316" depart="1280.00" from="NN" to="CW"/>
    <trip id="v317" depart="1286.00" from="NN" to="CN"/>
    <trip id="v318" depart="1289.00" from="EE" to="CS"/>
    <trip id="v319" depart="1289.00" from="SS" to="CE"/>
    <trip id="v320" depart="1293.00" from="WW" to="CN"/>
    <trip id="v321" depart="1294.00" from="NN" to="CS"/>
    <trip id="v322" depart="1297.00" from="SS" to="CE"/>
    <trip id="v323" depart="1298.00" from="SS" to="CS"/>
    <trip id="v324" depart="1301.00" from="SS" to="CN"/>
    <trip id="v325" depart="1302.00" from="WW" to="CW"/>
    <trip id="v326" depart="1304.00" from="SS" to="CE"/>
    <trip id="v327" depart="1313.00" from="SS" to="CW"/>
    <trip id="v328" depart="1314.00" from="EE" to="CS"/>
    <trip id="v329" depart="1318.00" from="WW" to="CS"/>
    <trip id="v330" depart="1319.00" from="NN" to="CE"/>
    <trip id="v331" depart="1322.00" from="SS" to="CS"/>
    <trip id="v332" depart="1344.00" from="WW" to="CS"/>
    <trip id="v333" depart="1349.00" from="NN" to="CE"/>
    <trip id="v334" depart="1351.00" from="EE" to="CN"/>
    <trip id="v335" depart="1352.00" from="WW" to="CE"/>
    <trip id="v336" depart="1353.00" from="WW" to="CW"/>
    <trip id="v337" depart="1353.00" from="EE" to="CE"/>
    <trip id="v338" depart="1358.00" from="NN" to="CS"/>
    <trip id="v339" depart="1365.00" from="EE" to="CS"/>
    <trip id="v340" depart="1367.00" from="NN" to="CS"/>
    <trip id="v341" depart="1370.00" from="NN" to="CS"/>
    <trip id="v342" depart="1374.00" from="WW" to="CS"/>
    <trip id="v343" depart="1380.00" from="WW" to="CS"/>
    <trip id="v344" depart="1381.00" from="SS" to="CW"/>
    <trip id="v345" depart="1384.00" from="WW" to="CN"/>
    <trip id="v346" depart="1388.00" from="WW" to="CS"/>
    <trip id="v347" depart="1389.00" from="EE" to="CE"/>
    <trip id="v348" depart="1391.00" from="NN" to="CE"/>
    <trip id="v349" depart="1391.00" from="EE" to="CE"/>
    <trip id="v350" depart="1395.00" from="EE" to="CE"/>
    <trip id="v351" depart="1396.00" from="EE" to="CN"/>
    <trip id="v352" depart="1396.00" from="SS" to="CE"/>
    <trip id="v353" depart="1407.00" from="NN" to="CE"/>
    <trip id="v354" depart="1409.00" from="WW" to="CW"/>
    <trip id="v355" depart="1411.00" from="EE" to="CS"/>
    <trip id="v356" depart="1411.00" from="EE" to="CE"/>
    <trip id="v357" depart="1414.00" from="EE" to="CN"/>
    <trip id="v358" depart="1417.00" from="WW" to="CS"/>
    <trip id="v359" depart="1421.00" from="WW" to="CN"/>
    <trip id="v360" depart="1428.00" from="EE" to="CS"/>
    <trip id="v361" depart="1432.00" from="WW" to="CS"/>
    <trip id="v362" depart="1434.00" from="WW" to="CE"/>
    <trip id="v363" depart="1434.00" from="WW" to="CW"/>
    <trip id="v364" depart="1437.00" from="NN" to="CS"/>
    <trip id="v365" depart="1440.00" from="SS" to="CE"/>
    <trip id="v366" depart="1441.00" from="NN" to="CS"/>
    <trip id="v367" depart="1446.00" from="WW" to="CS"/>
    <trip id="v368" depart="1450.00" from="SS" to="CS"/>
    <trip id="v369" depart="1452.00" from="NN" to="CN"/>
    <trip id="v370" depart="1453.00" from="SS" to="CE"/>
    <trip id="v371" depart="1453.00" from="WW" to="CE"/>
    <trip id="v372" depart="1459.00" from="SS" to="CE"/>
    <trip id="v373" depart="1466.00" from="SS" to="CN"/>
    <trip id="v374" depart="1466.00" from="WW" to="CE"/>
    <trip id="v375" depart="1470.00" from="SS" to="CS"/>
    <trip id="v376" depart="1489.00" from="WW" to="CN"/>
    <trip id="v377" depart="1491.00" from="WW" to="CN"/>
    <trip id="v378" depart="1493.00" from="SS" to="CN"/>
    <trip id="v379" depart="1497.00" from="NN" to="CE"/>
    <trip id="v380" depart="1501.00" from="WW" to="CW"/>
    <trip id="v381" depart="1508.00" from="NN" to="CW"/>
    <trip id="v382" depart="1516.00" from="WW" to="CN"/>
    <trip id="v383" depart="1519.00" from="EE" to="CS"/>
    <trip id="v384" depart="1523.00" from="NN" to="CN"/>
    <trip id="v385" depart="1528.00" from="NN" to="CE"/>
    <trip id="v386" depart="1532.00" from="SS" to="CE"/>
    <trip id="v387" depart="1548.00" from="EE" to="CW"/>
    <trip id="v388" depart="1578.00" from="NN" to="CE"/>
    <trip id="v389" depart="1578.00" from="EE" to="CN"/>
    <trip id="v390" depart="1579.00" from="WW" to="CW"/>
    <trip id="v391" depart="1581.00" from="EE" to="CW"/>
    <trip id="v392" depart="1582.00" from="EE" to="CN"/>
    <trip id="v393" depart="1593.00" from="EE" to="CN"/>
    <trip id="v394" depart="1598.00" from="SS" to="CN"/>
    <trip id="v395" depart="1600.00" from="WW" to="CS"/>
    <trip id="v396" depart="1602.00" from="NN" to="CS"/>
    <trip id="v397" depart="1608.00" from="EE" to="CS"/>
    <trip id="v398" depart="1612.00" from="SS" to="CE"/>
    <trip id="v399" depart="1621.00" from="NN" to="CE"/>
    <trip id="v400" depart="1625.00" from="WW" to="CS"/>
    <trip id="v401" depart="1625.00" from="SS" to="CS"/>
    <trip id="v402" depart="1635.00" from="EE" to="CN"/>
    <trip id="v403" depart="1638.00" from="EE" to="CN"/>
    <trip id="v404" depart="1641.00" from="NN" to="CE"/>
    <trip id="v405" depart="1641.00" from="SS" to="CW"/>
    <trip id="v406" depart="1643.00" from="WW" to="CE"/>
    <trip id="v407" depart="1646.00" from="SS" to="CN"/>
    <trip id="v408" depart="1654.00" from="WW" to="CS"/>
    <trip id="v409" depart="1660.00" from="EE" to="CE"/>
    <trip id="v410" depart="1665.00" from="SS" to="CN"/>
    <trip id="v411" depart="1669.00" from="SS" to="CW"/>
    <trip id="v412" depart="1671.00" from="NN" to="CW"/>
    <trip id="v413" depart="1671.00" from="WW" to="CS"/>
    <trip id="v414" depart="1674.00" from="EE" to="CE"/>
    <trip id="v415" depart="1678.00" from="WW" to="CN"/>
    <trip id="v416" depart="1682.00" from="SS" to="CN"/>
    <trip id="v417" depart="1685.00" from="EE" to="CE"/>
    <trip id="v418" depart="1690.00" from="SS" to="CE"/>
    <trip id="v419" depart="1690.00" from="WW" to="CN"/>
    <trip id="v420" depart="1695.00" from="NN" to="CN"/>
    <trip id="v421" depart="1705.00" from="EE" to="CN"/>
    <trip id="v422" depart="1705.00" from="EE" to="CS"/>
    <trip id="v423" depart="1707.00" from="SS" to="CS"/>
    <trip id="v424" depart="1709.00" from="SS" to="CE"/>
    <trip id="v425" depart="1709.00" from="EE" to="CN"/>
    <trip id="v426" depart="1713.00" from="SS" to="CN"/>
    <trip id="v427" depart="1717.00" from="WW" to="CW"/>
    <trip id="v428" depart="1717.00" from="WW" to="CN"/>
    <trip id="v429" depart="1718.00" from="EE" to="CE"/>
    <trip id="v430" depart="1730.00" from="WW" to="CN"/>
    <trip id="v431" depart="1735.00" from="WW" to="CN"/>
    <trip id="v432" depart="1746.00" from="SS" to="CS"/>
    <trip id="v433" depart="1750.00" from="SS" to="CS"/>
    <trip id="v434" depart="1753.00" from="SS" to="CN"/>
    <trip id="v435" depart="1754.00" from="EE" to="CN"/>
    <trip id="v436" depart="1763.00" from="WW" to="CW"/>
    <trip id="v437" depart="1767.00" from="EE" to="CN"/>
    <trip id="v438" depart="1769.00" from="SS" to="CW"/>
    <trip id="v439" depart="1773.00" from="SS" to="CE"/>
    <trip id="v440" depart="1782.00" from="WW" to="CW"/>
    <trip id="v441" depart="1786.00" from="EE" to="CE"/>
    <trip id="v442" depart="1791.00" from="NN" to="CW"/>
    <trip id="v443" depart="1792.00" from="SS" to="CE"/>
    <trip id="v444" depart="1796.00" from="SS" to="CN"/>
    <trip id="v445" depart="1802.00" from="NN" to="CW"/>
    <trip id="v446" depart="1804.00" from="WW" to="CS"/>
    <trip id="v447" depart="1805.00" from="WW" to="CE"/>
    <trip id="v448" depart="1807.00" from="EE" to="CN"/>
    <trip id="v449" depart="1814.00" from="NN" to="CW"/>
    <trip id="v450" depart="1822.00" from="NN" to="CS"/>
    <trip id="v451" depart="1823.00" from="EE" to="CE"/>
    <trip id="v452" depart="1836.00" from="EE" to="CN"/>
    <trip id="v453" depart="1836.00" from="WW" to="CN"/>
    <trip id="v454" depart="1837.00" from="NN" to="CW"/>
    <trip id="v455" depart="1843.00" from="WW" to="CW"/>
    <trip id="v456" depart="1847.00" from="EE" to="CN"/>
    <trip id="v457" depart="1848.00" from="WW" to="CN"/>
    <trip id="v458" depart="1852.00" from="SS" to="CS"/>
    <trip id="v459" depart="1854.00" from="WW" to="CE"/>
    <trip id="v460" depart="1861.00" from="WW" to="CS"/>
    <trip id="v461" depart="1862.00" from="NN" to="CW"/>
    <trip id="v462" depart="1865.00" from="SS" to="CN"/>
    <trip id="v463" depart="1866.00" from="EE" to="CN"/>
    <trip id="v464" depart="1879.00" from="WW" to="CS"/>
    <trip id="v465" depart="1882.00" from="SS" to="CE"/>
    <trip id="v466" depart="1883.00" from="EE" to="CS"/>
    <trip id="v467" depart="1886.00" from="EE" to="CN"/>
    <trip id="v468" depart="1890.00" from="WW" to="CN"/>
    <trip id="v469" depart="1894.00" from="EE" to="CW"/>
    <trip id="v470" depart="1899.00" from="WW" to="CN"/>
    <trip id="v471" depart="1899.00" from="NN" to="CE"/>
    <trip id="v472" depart="1903.00" from="WW" to="CW"/>
    <trip id="v473" depart="1904.00" from="WW" to="CN"/>
    <trip id="v474" depart="1908.00" from="NN" to="CE"/>
    <trip id="v475" depart="1908.00" from="SS" to="CS"/>
    <trip id="v476" depart="1923.00" from="WW" to="CW"/>
    <trip id="v477" depart="1926.00" from="WW" to="CE"/>
    <trip id="v478" depart="1931.00" from="EE" to="CW"/>
    <trip id="v479" depart="1935.00" from="EE" to="CW"/>
    <trip id="v480" depart="1935.00" from="EE" to="CE"/>
    <trip id="v481" depart="1942.00" from="NN" to="CE"/>
    <trip id="v482" depart="1951.00" from="SS" to="CW"/>
    <trip id="v483" depart="1958.00" from="WW" to="CS"/>
    <trip id="v484" depart="1968.00" from="EE" to="CS"/>
    <trip id="v485" depart="1974.00" from="SS" to="CW"/>
    <trip id="v486" depart="1981.00" from="EE" to="CW"/>
    <trip id="v487" depart="1983.00" from="NN" to="CN"/>
    <trip id="v488" depart="1987.00" from="EE" to="CE"/>
    <trip id="v489" depart="1989.00" from="WW" to="CS"/>
    <trip id="v490" depart="1989.00" from="SS" to="CW"/>
    <trip id="v491" depart="1989.00" from="WW" to="CS"/>
    <trip id="v492" depart="1995.00" from="NN" to="CN"/>
    <trip id="v493" depart="1998.00" from="SS" to="CS"/>
    <trip id="v494" depart="1998.00" from="WW" to="CW"/>
    <trip id="v495" depart="2004.00" from="SS" to="CW"/>
    <trip id="v496" depart="2015.00" from="SS" to="CW"/>
    <trip id="v497" depart="2018.00" from="WW" to="CS"/>
    <trip id="v498" depart="2019.00" from="WW" to="CE"/>
    <trip id="v499" depart="2025.00" from="NN" to="CN"/>
    <trip id="v500" depart="2027.00" from="SS" to="CW"/>
    <trip id="v501" depart="2031.00" from="EE" to="CW"/>
    <trip id="v502" depart="2035.00" from="WW" to="CS"/>
    <trip id="v503" depart="2042.00" from="EE" to="CS"/>
    <trip id="v504" depart="2043.00" from="SS" to="CE"/>
    <trip id="v505" depart="2044.00" from="EE" to="CE"/>
    <trip id="v506" depart="2047.00" from="NN" to="CS"/>
    <trip id="v507" depart="2049.00" from="NN" to="CN"/>
    <trip id="v508" depart="2052.00" from="NN" to="CE"/>
    <trip id="v509" depart="2058.00" from="SS" to="CN"/>
    <trip id="v510" depart="2062.00" from="NN" to="CE"/>
    <trip id="v511" depart="2066.00" from="NN" to="CW"/>
    <trip id="v512" depart="2075.00" from="NN" to="CW"/>
    <trip id="v513" depart="2076.00" from="SS" to="CE"/>
    <trip id="v514" depart="2089.00" from="NN" to="CS"/>
    <trip id="v515" depart="2103.00" from="NN" to="CE"/>