<nodes>
    <node id="C" x="0.0" y="0.0" radius="5.00"/>

    <node id="E1" x="-200.0" y="0.0"/>
    <node id="E2" x="-50.0" y="0.0"/>

    <node id="W1" x="200.0" y="0.0"/>
    <node id="W2" x="50.0" y="0.0"/>

    <node id="N1" x="0.0" y="200.0"/>
    <node id="N2" x="0.0" y="50.0"/>

    <node id="S1" x="0.0" y="-200.0"/>
    <node id="S2" x="0.0" y="-50.0"/>
</nodes>
