<nodes>
    <node id="0" x="-100.0" y="-100.0"/>
    <node id="1" x="0.0" y="0.0"/>
    <node id="2" x="+1000.0" y="800.0"/>
    <node id="3" x="+2000.0" y="1500.0"/>
</nodes>
