<?xml version="1.0" encoding="UTF-8"?>

<!-- generated on Thu 01 Jul 2021 02:40:16 PM CEST by Eclipse SUMO netedit Version v1_7_0+1095-7111e26d53
<configuration xmlns:xsi="http://www.w3.org/2001/XMLSchema-instance" xsi:noNamespaceSchemaLocation="http://sumo.dlr.de/xsd/netconvertConfiguration.xsd">

    <input>
        <sumo-net-file value="data/block.net.xml"/>
    </input>

    <output>
        <output-file value="data/block.net.xml"/>
    </output>

    <processing>
        <geometry.min-radius.fix.railways value="false"/>
        <geometry.max-grade.fix value="false"/>
        <offset.disable-normalization value="true"/>
        <lefthand value="false"/>
    </processing>

    <junctions>
        <no-internal-links value="false"/>
        <no-turnarounds value="true"/>
        <junctions.corner-detail value="5"/>
        <junctions.limit-turn-speed value="5.5"/>
        <rectangular-lane-cut value="false"/>
    </junctions>

    <pedestrian>
        <walkingareas value="true"/>
    </pedestrian>

    <report>
        <aggregate-warnings value="5"/>
    </report>

</configuration>
-->

<net version="1.6" junctionCornerDetail="5" walkingareas="true" limitTurnSpeed="5.50" xmlns:xsi="http://www.w3.org/2001/XMLSchema-instance" xsi:noNamespaceSchemaLocation="http://sumo.dlr.de/xsd/net_file.xsd">

    <location netOffset="600.00,450.00" convBoundary="0.00,0.00,1200.00,900.00" origBoundary="-600.00,-450.00,600.00,450.00" projParameter="!"/>

    <edge id=":A0_w0" function="walkingarea">
        <lane id=":A0_w0_0" index="0" allow="pedestrian" speed="1.00" length="10.00" width="2.00" shape="296.00,900.00 294.00,900.00 306.00,900.00 304.00,900.00"/>
    </edge>
    <edge id=":A1_0" function="internal">
        <lane id=":A1_0_0" index="0" disallow="pedestrian" speed="8.20" length="10.42" width="4.00" shape="298.00,617.00 298.00,612.00 297.62,609.38 296.50,607.50 296.00,607.20"/>
    </edge>
    <edge id=":A1_1" function="internal">
        <lane id=":A1_1_0" index="0" disallow="pedestrian" speed="13.89" length="29.00" width="4.00" shape="298.00,617.00 298.00,612.00 298.00,588.00"/>
    </edge>
    <edge id=":A1_2" function="internal">
        <lane id=":A1_2_0" index="0" disallow="pedestrian" speed="10.41" length="14.65" width="4.00" shape="298.00,617.00 298.00,612.00 298.62,605.88 300.00,602.67"/>
    </edge>
    <edge id=":A1_14" function="internal">
        <lane id=":A1_14_0" index="0" disallow="pedestrian" speed="8.20" length="4.26" width="4.00" shape="296.00,607.20 294.62,606.38 292.00,606.00"/>
    </edge>
    <edge id=":A1_15" function="internal">
        <lane id=":A1_15_0" index="0" disallow="pedestrian" speed="10.41" length="9.81" width="4.00" shape="300.00,602.67 300.50,601.50 303.62,598.88 308.00,598.00"/>
    </edge>
    <edge id=":A1_3" function="internal">
        <lane id=":A1_3_0" index="0" disallow="pedestrian" speed="8.20" length="10.42" width="4.00" shape="313.00,606.00 308.00,606.00 305.38,606.38 303.50,607.50 303.20,608.00"/>
    </edge>
    <edge id=":A1_4" function="internal">
        <lane id=":A1_4_0" index="0" disallow="pedestrian" speed="13.89" length="21.00" width="4.00" shape="313.00,606.00 308.00,606.00 292.00,606.00"/>
        <lane id=":A1_4_1" index="1" disallow="pedestrian" speed="13.89" length="21.00" width="4.00" shape="313.00,602.00 308.00,602.00 292.00,602.00"/>
    </edge>
    <edge id=":A1_6" function="internal">
        <lane id=":A1_6_0" index="0" disallow="pedestrian" speed="10.41" length="11.21" width="4.00" shape="313.00,602.00 308.00,602.00 303.62,601.12 302.29,600.00"/>
    </edge>
    <edge id=":A1_16" function="internal">
        <lane id=":A1_16_0" index="0" disallow="pedestrian" speed="8.20" length="4.26" width="4.00" shape="303.20,608.00 302.38,609.38 302.00,612.00"/>
    </edge>
    <edge id=":A1_17" function="internal">
        <lane id=":A1_17_0" index="0" disallow="pedestrian" speed="10.41" length="13.25" width="4.00" shape="302.29,600.00 300.50,598.50 298.62,594.12 298.00,588.00"/>
    </edge>
    <edge id=":A1_7" function="internal">
        <lane id=":A1_7_0" index="0" disallow="pedestrian" speed="8.20" length="10.42" width="4.00" shape="302.00,583.00 302.00,588.00 302.38,590.62 303.50,592.50 304.00,592.80"/>
    </edge>
    <edge id=":A1_8" function="internal">
        <lane id=":A1_8_0" index="0" disallow="pedestrian" speed="13.89" length="29.00" width="4.00" shape="302.00,583.00 302.00,588.00 302.00,612.00"/>
    </edge>
    <edge id=":A1_9" function="internal">
        <lane id=":A1_9_0" index="0" disallow="pedestrian" speed="10.41" length="14.65" width="4.00" shape="302.00,583.00 302.00,588.00 301.38,594.12 300.00,597.33"/>
    </edge>
    <edge id=":A1_18" function="internal">
        <lane id=":A1_18_0" index="0" disallow="pedestrian" speed="8.20" length="4.26" width="4.00" shape="304.00,592.80 305.38,593.62 308.00,594.00"/>
    </edge>
    <edge id=":A1_19" function="internal">
        <lane id=":A1_19_0" index="0" disallow="pedestrian" speed="10.41" length="9.81" width="4.00" shape="300.00,597.33 299.50,598.50 296.38,601.12 292.00,602.00"/>
    </edge>
    <edge id=":A1_10" function="internal">
        <lane id=":A1_10_0" index="0" disallow="pedestrian" speed="8.20" length="10.42" width="4.00" shape="287.00,594.00 292.00,594.00 294.62,593.62 296.50,592.50 296.80,592.00"/>
    </edge>
    <edge id=":A1_11" function="internal">
        <lane id=":A1_11_0" index="0" disallow="pedestrian" speed="13.89" length="21.00" width="4.00" shape="287.00,594.00 292.00,594.00 308.00,594.00"/>
        <lane id=":A1_11_1" index="1" disallow="pedestrian" speed="13.89" length="21.00" width="4.00" shape="287.00,598.00 292.00,598.00 308.00,598.00"/>
    </edge>
    <edge id=":A1_13" function="internal">
        <lane id=":A1_13_0" index="0" disallow="pedestrian" speed="10.41" length="11.21" width="4.00" shape="287.00,598.00 292.00,598.00 296.38,598.88 297.71,600.00"/>
    </edge>
    <edge id=":A1_20" function="internal">
        <lane id=":A1_20_0" index="0" disallow="pedestrian" speed="8.20" length="4.26" width="4.00" shape="296.80,592.00 297.62,590.62 298.00,588.00"/>
    </edge>
    <edge id=":A1_21" function="internal">
        <lane id=":A1_21_0" index="0" disallow="pedestrian" speed="10.41" length="13.25" width="4.00" shape="297.71,600.00 299.50,601.50 301.38,605.88 302.00,612.00"/>
    </edge>
    <edge id=":A1_c0" function="crossing" crossingEdges="A10 A01">
        <lane id=":A1_c0_0" index="0" allow="pedestrian" speed="1.00" length="8.00" width="4.00" shape="304.00,610.00 296.00,610.00"/>
    </edge>
    <edge id=":A1_c1" function="crossing" crossingEdges="AB1 BA1">
        <lane id=":A1_c1_0" index="0" allow="pedestrian" speed="1.00" length="16.00" width="4.00" shape="306.00,592.00 306.00,608.00"/>
    </edge>
    <edge id=":A1_c2" function="crossing" crossingEdges="A12 A21">
        <lane id=":A1_c2_0" index="0" allow="pedestrian" speed="1.00" length="8.00" width="4.00" shape="296.00,590.00 304.00,590.00"/>
    </edge>
    <edge id=":A1_c3" function="crossing" crossingEdges="AX1 XA1">
        <lane id=":A1_c3_0" index="0" allow="pedestrian" speed="1.00" length="16.00" width="4.00" shape="294.00,608.00 294.00,592.00"/>
    </edge>
    <edge id=":A1_w0" function="walkingarea">
        <lane id=":A1_w0_0" index="0" allow="pedestrian" speed="1.00" length="3.30" width="4.00" shape="292.00,608.00 292.00,610.00 294.00,612.00 296.00,612.00 295.89,610.78 295.56,609.78 295.00,609.00 294.22,608.44 293.22,608.11"/>
    </edge>
    <edge id=":A1_w1" function="walkingarea">
        <lane id=":A1_w1_0" index="0" allow="pedestrian" speed="1.00" length="3.30" width="4.00" shape="304.00,612.00 306.00,612.00 308.00,610.00 308.00,608.00 306.78,608.11 305.78,608.44 305.00,609.00 304.44,609.78 304.11,610.78"/>
    </edge>
    <edge id=":A1_w2" function="walkingarea">
        <lane id=":A1_w2_0" index="0" allow="pedestrian" speed="1.00" length="3.30" width="4.00" shape="308.00,592.00 308.00,590.00 306.00,588.00 304.00,588.00 304.11,589.22 304.44,590.22 305.00,591.00 305.78,591.56 306.78,591.89"/>
    </edge>
    <edge id=":A1_w3" function="walkingarea">
        <lane id=":A1_w3_0" index="0" allow="pedestrian" speed="1.00" length="3.30" width="4.00" shape="296.00,588.00 294.00,588.00 292.00,590.00 292.00,592.00 293.22,591.89 294.22,591.56 295.00,591.00 295.56,590.22 295.89,589.22"/>
    </edge>
    <edge id=":A2_0" function="internal">
        <lane id=":A2_0_0" index="0" disallow="pedestrian" speed="8.20" length="10.42" width="4.00" shape="298.00,317.00 298.00,312.00 297.62,309.38 296.50,307.50 296.00,307.20"/>
    </edge>
    <edge id=":A2_1" function="internal">
        <lane id=":A2_1_0" index="0" disallow="pedestrian" speed="13.89" length="29.00" width="4.00" shape="298.00,317.00 298.00,312.00 298.00,288.00"/>
    </edge>
    <edge id=":A2_2" function="internal">
        <lane id=":A2_2_0" index="0" disallow="pedestrian" speed="10.41" length="14.65" width="4.00" shape="298.00,317.00 298.00,312.00 298.62,305.88 300.00,302.67"/>
    </edge>
    <edge id=":A2_14" function="internal">
        <lane id=":A2_14_0" index="0" disallow="pedestrian" speed="8.20" length="4.26" width="4.00" shape="296.00,307.20 294.62,306.38 292.00,306.00"/>
    </edge>
    <edge id=":A2_15" function="internal">
        <lane id=":A2_15_0" index="0" disallow="pedestrian" speed="10.41" length="9.81" width="4.00" shape="300.00,302.67 300.50,301.50 303.62,298.88 308.00,298.00"/>
    </edge>
    <edge id=":A2_3" function="internal">
        <lane id=":A2_3_0" index="0" disallow="pedestrian" speed="8.20" length="10.42" width="4.00" shape="313.00,306.00 308.00,306.00 305.38,306.38 303.50,307.50 303.20,308.00"/>
    </edge>
    <edge id=":A2_4" function="internal">
        <lane id=":A2_4_0" index="0" disallow="pedestrian" speed="13.89" length="21.00" width="4.00" shape="313.00,306.00 308.00,306.00 292.00,306.00"/>
        <lane id=":A2_4_1" index="1" disallow="pedestrian" speed="13.89" length="21.00" width="4.00" shape="313.00,302.00 308.00,302.00 292.00,302.00"/>
    </edge>
    <edge id=":A2_6" function="internal">
        <lane id=":A2_6_0" index="0" disallow="pedestrian" speed="10.41" length="11.21" width="4.00" shape="313.00,302.00 308.00,302.00 303.62,301.12 302.29,300.00"/>
    </edge>
    <edge id=":A2_16" function="internal">
        <lane id=":A2_16_0" index="0" disallow="pedestrian" speed="8.20" length="4.26" width="4.00" shape="303.20,308.00 302.38,309.38 302.00,312.00"/>
    </edge>
    <edge id=":A2_17" function="internal">
        <lane id=":A2_17_0" index="0" disallow="pedestrian" speed="10.41" length="13.25" width="4.00" shape="302.29,300.00 300.50,298.50 298.62,294.12 298.00,288.00"/>
    </edge>
    <edge id=":A2_7" function="internal">
        <lane id=":A2_7_0" index="0" disallow="pedestrian" speed="8.20" length="10.42" width="4.00" shape="302.00,283.00 302.00,288.00 302.38,290.62 303.50,292.50 304.00,292.80"/>
    </edge>
    <edge id=":A2_8" function="internal">
        <lane id=":A2_8_0" index="0" disallow="pedestrian" speed="13.89" length="29.00" width="4.00" shape="302.00,283.00 302.00,288.00 302.00,312.00"/>
    </edge>
    <edge id=":A2_9" function="internal">
        <lane id=":A2_9_0" index="0" disallow="pedestrian" speed="10.41" length="14.65" width="4.00" shape="302.00,283.00 302.00,288.00 301.38,294.12 300.00,297.33"/>
    </edge>
    <edge id=":A2_18" function="internal">
        <lane id=":A2_18_0" index="0" disallow="pedestrian" speed="8.20" length="4.26" width="4.00" shape="304.00,292.80 305.38,293.62 308.00,294.00"/>
    </edge>
    <edge id=":A2_19" function="internal">
        <lane id=":A2_19_0" index="0" disallow="pedestrian" speed="10.41" length="9.81" width="4.00" shape="300.00,297.33 299.50,298.50 296.38,301.12 292.00,302.00"/>
    </edge>
    <edge id=":A2_10" function="internal">
        <lane id=":A2_10_0" index="0" disallow="pedestrian" speed="8.20" length="10.42" width="4.00" shape="287.00,294.00 292.00,294.00 294.62,293.62 296.50,292.50 296.80,292.00"/>
    </edge>
    <edge id=":A2_11" function="internal">
        <lane id=":A2_11_0" index="0" disallow="pedestrian" speed="13.89" length="21.00" width="4.00" shape="287.00,294.00 292.00,294.00 308.00,294.00"/>
        <lane id=":A2_11_1" index="1" disallow="pedestrian" speed="13.89" length="21.00" width="4.00" shape="287.00,298.00 292.00,298.00 308.00,298.00"/>
    </edge>
    <edge id=":A2_13" function="internal">
        <lane id=":A2_13_0" index="0" disallow="pedestrian" speed="10.41" length="11.21" width="4.00" shape="287.00,298.00 292.00,298.00 296.38,298.88 297.71,300.00"/>
    </edge>
    <edge id=":A2_20" function="internal">
        <lane id=":A2_20_0" index="0" disallow="pedestrian" speed="8.20" length="4.26" width="4.00" shape="296.80,292.00 297.62,290.62 298.00,288.00"/>
    </edge>
    <edge id=":A2_21" function="internal">
        <lane id=":A2_21_0" index="0" disallow="pedestrian" speed="10.41" length="13.25" width="4.00" shape="297.71,300.00 299.50,301.50 301.38,305.88 302.00,312.00"/>
    </edge>
    <edge id=":A2_c0" function="crossing" crossingEdges="A21 A12">
        <lane id=":A2_c0_0" index="0" allow="pedestrian" speed="1.00" length="8.00" width="4.00" shape="304.00,310.00 296.00,310.00"/>
    </edge>
    <edge id=":A2_c1" function="crossing" crossingEdges="AB2 BA2">
        <lane id=":A2_c1_0" index="0" allow="pedestrian" speed="1.00" length="16.00" width="4.00" shape="306.00,292.00 306.00,308.00"/>
    </edge>
    <edge id=":A2_c2" function="crossing" crossingEdges="A23 A32">
        <lane id=":A2_c2_0" index="0" allow="pedestrian" speed="1.00" length="8.00" width="4.00" shape="296.00,290.00 304.00,290.00"/>
    </edge>
    <edge id=":A2_c3" function="crossing" crossingEdges="AX2 XA2">
        <lane id=":A2_c3_0" index="0" allow="pedestrian" speed="1.00" length="16.00" width="4.00" shape="294.00,308.00 294.00,292.00"/>
    </edge>
    <edge id=":A2_w0" function="walkingarea">
        <lane id=":A2_w0_0" index="0" allow="pedestrian" speed="1.00" length="3.30" width="4.00" shape="292.00,308.00 292.00,310.00 294.00,312.00 296.00,312.00 295.89,310.78 295.56,309.78 295.00,309.00 294.22,308.44 293.22,308.11"/>
    </edge>
    <edge id=":A2_w1" function="walkingarea">
        <lane id=":A2_w1_0" index="0" allow="pedestrian" speed="1.00" length="3.30" width="4.00" shape="304.00,312.00 306.00,312.00 308.00,310.00 308.00,308.00 306.78,308.11 305.78,308.44 305.00,309.00 304.44,309.78 304.11,310.78"/>
    </edge>
    <edge id=":A2_w2" function="walkingarea">
        <lane id=":A2_w2_0" index="0" allow="pedestrian" speed="1.00" length="3.30" width="4.00" shape="308.00,292.00 308.00,290.00 306.00,288.00 304.00,288.00 304.11,289.22 304.44,290.22 305.00,291.00 305.78,291.56 306.78,291.89"/>
    </edge>
    <edge id=":A2_w3" function="walkingarea">
        <lane id=":A2_w3_0" index="0" allow="pedestrian" speed="1.00" length="3.30" width="4.00" shape="296.00,288.00 294.00,288.00 292.00,290.00 292.00,292.00 293.22,291.89 294.22,291.56 295.00,291.00 295.56,290.22 295.89,289.22"/>
    </edge>
    <edge id=":A3_w0" function="walkingarea">
        <lane id=":A3_w0_0" index="0" allow="pedestrian" speed="1.00" length="10.00" width="2.00" shape="304.00,0.00 306.00,0.00 294.00,0.00 296.00,0.00"/>
    </edge>
    <edge id=":B1_0" function="internal">
        <lane id=":B1_0_0" index="0" disallow="pedestrian" speed="13.89" length="10.00" width="4.00" shape="607.50,606.00 602.50,606.00 597.50,606.00"/>
        <lane id=":B1_0_1" index="1" disallow="pedestrian" speed="13.89" length="10.00" width="4.00" shape="607.50,602.00 602.50,602.00 597.50,602.00"/>
    </edge>
    <edge id=":B1_2" function="internal">
        <lane id=":B1_2_0" index="0" disallow="pedestrian" speed="13.89" length="10.00" width="4.00" shape="592.50,594.00 597.50,594.00 602.50,594.00"/>
        <lane id=":B1_2_1" index="1" disallow="pedestrian" speed="13.89" length="10.00" width="4.00" shape="592.50,598.00 597.50,598.00 602.50,598.00"/>
    </edge>
    <edge id=":B1_c0" function="crossing" crossingEdges="BC1 CB1">
        <lane id=":B1_c0_0" index="0" allow="pedestrian" speed="1.00" length="16.00" width="4.00" shape="600.50,592.00 600.50,608.00"/>
    </edge>
    <edge id=":B1_w0" function="walkingarea">
        <lane id=":B1_w0_0" index="0" allow="pedestrian" speed="1.00" length="3.50" width="4.00" shape="597.50,608.00 597.50,610.00 599.00,611.50 601.00,611.50 602.50,610.00 602.50,608.00 598.50,608.00"/>
    </edge>
    <edge id=":B1_w1" function="walkingarea">
        <lane id=":B1_w1_0" index="0" allow="pedestrian" speed="1.00" length="3.50" width="4.00" shape="598.50,592.00 602.50,592.00 602.50,590.00 601.00,588.50 599.00,588.50 597.50,590.00 597.50,592.00"/>
    </edge>
    <edge id=":B2_0" function="internal">
        <lane id=":B2_0_0" index="0" disallow="pedestrian" speed="13.89" length="10.00" width="4.00" shape="607.50,306.00 602.50,306.00 597.50,306.00"/>
        <lane id=":B2_0_1" index="1" disallow="pedestrian" speed="13.89" length="10.00" width="4.00" shape="607.50,302.00 602.50,302.00 597.50,302.00"/>
    </edge>
    <edge id=":B2_2" function="internal">
        <lane id=":B2_2_0" index="0" disallow="pedestrian" speed="13.89" length="10.00" width="4.00" shape="592.50,294.00 597.50,294.00 602.50,294.00"/>
        <lane id=":B2_2_1" index="1" disallow="pedestrian" speed="13.89" length="10.00" width="4.00" shape="592.50,298.00 597.50,298.00 602.50,298.00"/>
    </edge>
    <edge id=":B2_c0" function="crossing" crossingEdges="BC2 CB2">
        <lane id=":B2_c0_0" index="0" allow="pedestrian" speed="1.00" length="16.00" width="4.00" shape="600.50,292.00 600.50,308.00"/>
    </edge>
    <edge id=":B2_w0" function="walkingarea">
        <lane id=":B2_w0_0" index="0" allow="pedestrian" speed="1.00" length="3.50" width="4.00" shape="597.50,308.00 597.50,310.00 599.00,311.50 601.00,311.50 602.50,310.00 602.50,308.00 598.50,308.00"/>
    </edge>
    <edge id=":B2_w1" function="walkingarea">
        <lane id=":B2_w1_0" index="0" allow="pedestrian" speed="1.00" length="3.50" width="4.00" shape="598.50,292.00 602.50,292.00 602.50,290.00 601.00,288.50 599.00,288.50 597.50,290.00 597.50,292.00"/>
    </edge>
    <edge id=":C0_w0" function="walkingarea">
        <lane id=":C0_w0_0" index="0" allow="pedestrian" speed="1.00" length="18.00" width="2.00" shape="892.00,900.00 890.00,900.00 910.00,900.00 908.00,900.00"/>
    </edge>
    <edge id=":C1_0" function="internal">
        <lane id=":C1_0_0" index="0" disallow="pedestrian" speed="8.20" length="10.42" width="4.00" shape="894.00,617.00 894.00,612.00 893.62,609.38 892.50,607.50 892.00,607.20"/>
    </edge>
    <edge id=":C1_1" function="internal">
        <lane id=":C1_1_0" index="0" disallow="pedestrian" speed="13.89" length="29.00" width="4.00" shape="894.00,617.00 894.00,612.00 894.00,588.00"/>
        <lane id=":C1_1_1" index="1" disallow="pedestrian" speed="13.89" length="29.00" width="4.00" shape="898.00,617.00 898.00,612.00 898.00,588.00"/>
    </edge>
    <edge id=":C1_3" function="internal">
        <lane id=":C1_3_0" index="0" disallow="pedestrian" speed="11.02" length="13.37" width="4.00" shape="898.00,617.00 898.00,612.00 898.88,605.88 900.00,604.00"/>
    </edge>
    <edge id=":C1_16" function="internal">
        <lane id=":C1_16_0" index="0" disallow="pedestrian" speed="8.20" length="4.26" width="4.00" shape="892.00,607.20 890.62,606.38 888.00,606.00"/>
    </edge>
    <edge id=":C1_17" function="internal">
        <lane id=":C1_17_0" index="0" disallow="pedestrian" speed="11.02" length="14.20" width="4.00" shape="900.00,604.00 901.50,601.50 905.88,598.88 912.00,598.00"/>
    </edge>
    <edge id=":C1_4" function="internal">
        <lane id=":C1_4_0" index="0" disallow="pedestrian" speed="8.20" length="10.42" width="4.00" shape="917.00,606.00 912.00,606.00 909.38,606.38 907.50,607.50 907.20,608.00"/>
    </edge>
    <edge id=":C1_5" function="internal">
        <lane id=":C1_5_0" index="0" disallow="pedestrian" speed="13.89" length="29.00" width="4.00" shape="917.00,606.00 912.00,606.00 888.00,606.00"/>
        <lane id=":C1_5_1" index="1" disallow="pedestrian" speed="13.89" length="29.00" width="4.00" shape="917.00,602.00 912.00,602.00 888.00,602.00"/>
    </edge>
    <edge id=":C1_7" function="internal">
        <lane id=":C1_7_0" index="0" disallow="pedestrian" speed="11.02" length="13.37" width="4.00" shape="917.00,602.00 912.00,602.00 905.88,601.12 904.00,600.00"/>
    </edge>
    <edge id=":C1_18" function="internal">
        <lane id=":C1_18_0" index="0" disallow="pedestrian" speed="8.20" length="4.26" width="4.00" shape="907.20,608.00 906.38,609.38 906.00,612.00"/>
    </edge>
    <edge id=":C1_19" function="internal">
        <lane id=":C1_19_0" index="0" disallow="pedestrian" speed="11.02" length="14.20" width="4.00" shape="904.00,600.00 901.50,598.50 898.88,594.12 898.00,588.00"/>
    </edge>
    <edge id=":C1_8" function="internal">
        <lane id=":C1_8_0" index="0" disallow="pedestrian" speed="8.20" length="10.42" width="4.00" shape="906.00,583.00 906.00,588.00 906.38,590.62 907.50,592.50 908.00,592.80"/>
    </edge>
    <edge id=":C1_9" function="internal">
        <lane id=":C1_9_0" index="0" disallow="pedestrian" speed="13.89" length="29.00" width="4.00" shape="906.00,583.00 906.00,588.00 906.00,612.00"/>
        <lane id=":C1_9_1" index="1" disallow="pedestrian" speed="13.89" length="29.00" width="4.00" shape="902.00,583.00 902.00,588.00 902.00,612.00"/>
    </edge>
    <edge id=":C1_11" function="internal">
        <lane id=":C1_11_0" index="0" disallow="pedestrian" speed="11.02" length="13.37" width="4.00" shape="902.00,583.00 902.00,588.00 901.12,594.12 900.00,596.00"/>
    </edge>
    <edge id=":C1_20" function="internal">
        <lane id=":C1_20_0" index="0" disallow="pedestrian" speed="8.20" length="4.26" width="4.00" shape="908.00,592.80 909.38,593.62 912.00,594.00"/>
    </edge>
    <edge id=":C1_21" function="internal">
        <lane id=":C1_21_0" index="0" disallow="pedestrian" speed="11.02" length="14.20" width="4.00" shape="900.00,596.00 898.50,598.50 894.12,601.12 888.00,602.00"/>
    </edge>
    <edge id=":C1_12" function="internal">
        <lane id=":C1_12_0" index="0" disallow="pedestrian" speed="8.20" length="10.42" width="4.00" shape="883.00,594.00 888.00,594.00 890.62,593.62 892.50,592.50 892.80,592.00"/>
    </edge>
    <edge id=":C1_13" function="internal">
        <lane id=":C1_13_0" index="0" disallow="pedestrian" speed="13.89" length="29.00" width="4.00" shape="883.00,594.00 888.00,594.00 912.00,594.00"/>
        <lane id=":C1_13_1" index="1" disallow="pedestrian" speed="13.89" length="29.00" width="4.00" shape="883.00,598.00 888.00,598.00 912.00,598.00"/>
    </edge>
    <edge id=":C1_15" function="internal">
        <lane id=":C1_15_0" index="0" disallow="pedestrian" speed="11.02" length="13.37" width="4.00" shape="883.00,598.00 888.00,598.00 894.12,598.88 896.00,600.00"/>
    </edge>
    <edge id=":C1_22" function="internal">
        <lane id=":C1_22_0" index="0" disallow="pedestrian" speed="8.20" length="4.26" width="4.00" shape="892.80,592.00 893.62,590.62 894.00,588.00"/>
    </edge>
    <edge id=":C1_23" function="internal">
        <lane id=":C1_23_0" index="0" disallow="pedestrian" speed="11.02" length="14.20" width="4.00" shape="896.00,600.00 898.50,601.50 901.12,605.88 902.00,612.00"/>
    </edge>
    <edge id=":C1_c0" function="crossing" crossingEdges="C10 C01">
        <lane id=":C1_c0_0" index="0" allow="pedestrian" speed="1.00" length="16.00" width="4.00" shape="908.00,610.00 892.00,610.00"/>
    </edge>
    <edge id=":C1_c1" function="crossing" crossingEdges="CY1 YC1">
        <lane id=":C1_c1_0" index="0" allow="pedestrian" speed="1.00" length="16.00" width="4.00" shape="910.00,592.00 910.00,608.00"/>
    </edge>
    <edge id=":C1_c2" function="crossing" crossingEdges="C12 C21">
        <lane id=":C1_c2_0" index="0" allow="pedestrian" speed="1.00" length="16.00" width="4.00" shape="892.00,590.00 908.00,590.00"/>
    </edge>
    <edge id=":C1_c3" function="crossing" crossingEdges="CB1 BC1">
        <lane id=":C1_c3_0" index="0" allow="pedestrian" speed="1.00" length="16.00" width="4.00" shape="890.00,608.00 890.00,592.00"/>
    </edge>
    <edge id=":C1_w0" function="walkingarea">
        <lane id=":C1_w0_0" index="0" allow="pedestrian" speed="1.00" length="3.30" width="4.00" shape="888.00,608.00 888.00,610.00 890.00,612.00 892.00,612.00 891.89,610.78 891.56,609.78 891.00,609.00 890.22,608.44 889.22,608.11"/>
    </edge>
    <edge id=":C1_w1" function="walkingarea">
        <lane id=":C1_w1_0" index="0" allow="pedestrian" speed="1.00" length="3.30" width="4.00" shape="908.00,612.00 910.00,612.00 912.00,610.00 912.00,608.00 910.78,608.11 909.78,608.44 909.00,609.00 908.44,609.78 908.11,610.78"/>
    </edge>
    <edge id=":C1_w2" function="walkingarea">
        <lane id=":C1_w2_0" index="0" allow="pedestrian" speed="1.00" length="3.30" width="4.00" shape="912.00,592.00 912.00,590.00 910.00,588.00 908.00,588.00 908.11,589.22 908.44,590.22 909.00,591.00 909.78,591.56 910.78,591.89"/>
    </edge>
    <edge id=":C1_w3" function="walkingarea">
        <lane id=":C1_w3_0" index="0" allow="pedestrian" speed="1.00" length="3.30" width="4.00" shape="892.00,588.00 890.00,588.00 888.00,590.00 888.00,592.00 889.22,591.89 890.22,591.56 891.00,591.00 891.56,590.22 891.89,589.22"/>
    </edge>
    <edge id=":C2_0" function="internal">
        <lane id=":C2_0_0" index="0" disallow="pedestrian" speed="8.20" length="10.42" width="4.00" shape="894.00,317.00 894.00,312.00 893.62,309.38 892.50,307.50 892.00,307.20"/>
    </edge>
    <edge id=":C2_1" function="internal">
        <lane id=":C2_1_0" index="0" disallow="pedestrian" speed="13.89" length="29.00" width="4.00" shape="894.00,317.00 894.00,312.00 894.00,288.00"/>
        <lane id=":C2_1_1" index="1" disallow="pedestrian" speed="13.89" length="29.00" width="4.00" shape="898.00,317.00 898.00,312.00 898.00,288.00"/>
    </edge>
    <edge id=":C2_3" function="internal">
        <lane id=":C2_3_0" index="0" disallow="pedestrian" speed="11.02" length="13.37" width="4.00" shape="898.00,317.00 898.00,312.00 898.88,305.88 900.00,304.00"/>
    </edge>
    <edge id=":C2_16" function="internal">
        <lane id=":C2_16_0" index="0" disallow="pedestrian" speed="8.20" length="4.26" width="4.00" shape="892.00,307.20 890.62,306.38 888.00,306.00"/>
    </edge>
    <edge id=":C2_17" function="internal">
        <lane id=":C2_17_0" index="0" disallow="pedestrian" speed="11.02" length="14.20" width="4.00" shape="900.00,304.00 901.50,301.50 905.88,298.88 912.00,298.00"/>
    </edge>
    <edge id=":C2_4" function="internal">
        <lane id=":C2_4_0" index="0" disallow="pedestrian" speed="8.20" length="10.42" width="4.00" shape="917.00,306.00 912.00,306.00 909.38,306.38 907.50,307.50 907.20,308.00"/>
    </edge>
    <edge id=":C2_5" function="internal">
        <lane id=":C2_5_0" index="0" disallow="pedestrian" speed="13.89" length="29.00" width="4.00" shape="917.00,306.00 912.00,306.00 888.00,306.00"/>
        <lane id=":C2_5_1" index="1" disallow="pedestrian" speed="13.89" length="29.00" width="4.00" shape="917.00,302.00 912.00,302.00 888.00,302.00"/>
    </edge>
    <edge id=":C2_7" function="internal">
        <lane id=":C2_7_0" index="0" disallow="pedestrian" speed="11.02" length="13.37" width="4.00" shape="917.00,302.00 912.00,302.00 905.88,301.12 904.00,300.00"/>
    </edge>
    <edge id=":C2_18" function="internal">
        <lane id=":C2_18_0" index="0" disallow="pedestrian" speed="8.20" length="4.26" width="4.00" shape="907.20,308.00 906.38,309.38 906.00,312.00"/>
    </edge>
    <edge id=":C2_19" function="internal">
        <lane id=":C2_19_0" index="0" disallow="pedestrian" speed="11.02" length="14.20" width="4.00" shape="904.00,300.00 901.50,298.50 898.88,294.12 898.00,288.00"/>
    </edge>
    <edge id=":C2_8" function="internal">
        <lane id=":C2_8_0" index="0" disallow="pedestrian" speed="8.20" length="10.42" width="4.00" shape="906.00,283.00 906.00,288.00 906.38,290.62 907.50,292.50 908.00,292.80"/>
    </edge>
    <edge id=":C2_9" function="internal">
        <lane id=":C2_9_0" index="0" disallow="pedestrian" speed="13.89" length="29.00" width="4.00" shape="906.00,283.00 906.00,288.00 906.00,312.00"/>
        <lane id=":C2_9_1" index="1" disallow="pedestrian" speed="13.89" length="29.00" width="4.00" shape="902.00,283.00 902.00,288.00 902.00,312.00"/>
    </edge>
    <edge id=":C2_11" function="internal">
        <lane id=":C2_11_0" index="0" disallow="pedestrian" speed="11.02" length="13.37" width="4.00" shape="902.00,283.00 902.00,288.00 901.12,294.12 900.00,296.00"/>
    </edge>
    <edge id=":C2_20" function="internal">
        <lane id=":C2_20_0" index="0" disallow="pedestrian" speed="8.20" length="4.26" width="4.00" shape="908.00,292.80 909.38,293.62 912.00,294.00"/>
    </edge>
    <edge id=":C2_21" function="internal">
        <lane id=":C2_21_0" index="0" disallow="pedestrian" speed="11.02" length="14.20" width="4.00" shape="900.00,296.00 898.50,298.50 894.12,301.12 888.00,302.00"/>
    </edge>
    <edge id=":C2_12" function="internal">
        <lane id=":C2_12_0" index="0" disallow="pedestrian" speed="8.20" length="10.42" width="4.00" shape="883.00,294.00 888.00,294.00 890.62,293.62 892.50,292.50 892.80,292.00"/>
    </edge>
    <edge id=":C2_13" function="internal">
        <lane id=":C2_13_0" index="0" disallow="pedestrian" speed="13.89" length="29.00" width="4.00" shape="883.00,294.00 888.00,294.00 912.00,294.00"/>
        <lane id=":C2_13_1" index="1" disallow="pedestrian" speed="13.89" length="29.00" width="4.00" shape="883.00,298.00 888.00,298.00 912.00,298.00"/>
    </edge>
    <edge id=":C2_15" function="internal">