<?xml version="1.0" encoding="UTF-8"?>

<!-- generated on Thu Oct  7 20:37:22 2021 by Eclipse SUMO netconvert Version v1_7_0+1095-7111e26d53
<configuration xmlns:xsi="http://www.w3.org/2001/XMLSchema-instance" xsi:noNamespaceSchemaLocation="http://sumo.dlr.de/xsd/netconvertConfiguration.xsd">

    <input>
        <node-files value="stolpedalsvej.nod.xml"/>
        <edge-files value="stolpedalsvej.edg.xml"/>
    </input>

    <output>
        <output-file value="stolpedalsvej2.net.xml"/>
    </output>

    <bicycle>
        <bikelanes.guess value="true"/>
    </bicycle>

    <report>
        <aggregate-warnings value="5"/>
    </report>

</configuration>
-->

<net version="1.6" junctionCornerDetail="5" limitTurnSpeed="5.50" xmlns:xsi="http://www.w3.org/2001/XMLSchema-instance" xsi:noNamespaceSchemaLocation="http://sumo.dlr.de/xsd/net_file.xsd">

    <location netOffset="235.04,172.65" convBoundary="0.00,0.00,512.90,326.72" origBoundary="-10000000000.00,-10000000000.00,10000000000.00,10000000000.00" projParameter="!"/>

    <edge id=":gneJ10_0" function="internal">
        <lane id=":gneJ10_0_0" index="0" disallow="bicycle" speed="4.54" length="8.49" shape="509.35,121.57 511.81,122.48 512.85,123.72 512.48,125.31 510.69,127.22"/>
    </edge>
    <edge id=":gneJ11_0" function="internal">
        <lane id=":gneJ11_0_0" index="0" disallow="bicycle" speed="3.65" length="4.67" shape="326.61,296.62 326.16,297.99 325.50,298.59 324.62,298.42 323.53,297.48"/>
    </edge>
    <edge id=":gneJ13_0" function="internal">
        <lane id=":gneJ13_0_0" index="0" disallow="bicycle" speed="3.65" length="4.67" shape="224.03,326.31 223.56,327.67 222.89,328.27 222.02,328.09 220.93,327.13"/>
    </edge>
    <edge id=":gneJ14_0" function="internal">
        <lane id=":gneJ14_0_0" index="0" allow="bicycle" speed="13.89" length="0.49" width="1.00" shape="93.78,205.21 93.74,205.22 93.71,205.23 93.68,205.25 93.64,205.27"/>
        <lane id=":gneJ14_0_1" index="1" disallow="bicycle" speed="13.89" length="0.49" shape="93.40,203.15 93.16,203.20 93.00,203.24 92.85,203.31 92.63,203.42"/>
    </edge>
    <edge id=":gneJ14_2" function="internal">
        <lane id=":gneJ14_2_0" index="0" allow="bicycle" speed="13.89" length="2.16" width="1.00" shape="90.09,198.77 90.75,198.42 91.21,198.22 91.70,198.08 92.43,197.94"/>
        <lane id=":gneJ14_2_1" index="1" disallow="bicycle" speed="13.89" length="2.16" shape="91.10,200.61 91.58,200.36 91.92,200.21 92.28,200.11 92.81,200.00"/>
    </edge>
    <edge id=":gneJ15_0" function="internal">
        <lane id=":gneJ15_0_0" index="0" disallow="bicycle" speed="3.65" length="4.67" shape="164.64,120.59 165.08,119.22 165.75,118.62 166.62,118.79 167.72,119.73"/>
    </edge>
    <edge id=":gneJ16_0" function="internal">
        <lane id=":gneJ16_0_0" index="0" allow="bicycle" speed="13.89" length="7.96" width="1.00" shape="360.92,113.13 358.80,105.51"/>
        <lane id=":gneJ16_0_1" index="1" disallow="bicycle" speed="13.89" length="7.96" width="5.00" shape="362.95,112.59 362.48,110.26 362.35,108.63 362.20,107.00 361.68,104.69"/>
    </edge>
    <edge id=":gneJ16_2" function="internal">
        <lane id=":gneJ16_2_0" index="0" allow="bicycle" speed="13.89" length="8.20" width="1.00" shape="369.38,102.51 371.59,110.27"/>
        <lane id=":gneJ16_2_1" index="1" disallow="bicycle" speed="13.89" length="8.20" shape="366.49,103.33 367.29,105.59 368.05,107.07 368.80,108.55 369.56,110.82"/>
        <lane id=":gneJ16_2_2" index="2" disallow="bicycle" speed="13.89" length="8.20" shape="366.49,103.33 366.82,105.75 366.50,107.48 366.18,109.21 366.47,111.64"/>
    </edge>
    <edge id=":gneJ17_0" function="internal">
        <lane id=":gneJ17_0_0" index="0" allow="bicycle" speed="13.89" length="8.29" width="1.00" shape="388.31,210.33 387.56,208.03 386.87,206.52 386.19,205.00 385.48,202.69"/>
        <lane id=":gneJ17_0_1" index="1" disallow="bicycle" speed="13.89" length="8.29" shape="390.35,209.83 389.60,207.53 388.91,206.01 388.23,204.49 387.52,202.18"/>
        <lane id=":gneJ17_0_2" index="2" disallow="bicycle" speed="13.89" length="8.29" shape="390.35,209.83 390.07,207.37 390.46,205.62 390.86,203.87 390.62,201.40"/>
    </edge>
    <edge id=":gneJ17_3" function="internal">
        <lane id=":gneJ17_3_0" index="0" allow="bicycle" speed="13.89" length="8.39" width="1.00" shape="395.76,200.10 396.60,202.42 397.53,203.88 398.46,205.34 399.28,207.67"/>
        <lane id=":gneJ17_3_1" index="1" disallow="bicycle" speed="13.89" length="8.39" shape="393.72,200.61 394.56,202.93 395.50,204.38 396.42,205.84 397.24,208.16"/>
    </edge>
    <edge id=":gneJ18_0" function="internal">
        <lane id=":gneJ18_0_0" index="0" disallow="bicycle" speed="3.65" length="4.67" shape="-1.17,151.89 -1.40,150.46 -1.10,149.62 -0.24,149.37 1.17,149.69"/>
    </edge>
    <edge id=":gneJ19_0" function="internal">
        <lane id=":gneJ19_0_0" index="0" disallow="bicycle" speed="3.65" length="4.67" shape="150.31,307.26 150.56,308.68 150.25,309.52 149.40,309.78 147.99,309.46"/>
    </edge>
    <edge id=":gneJ20_0" function="internal">
        <lane id=":gneJ20_0_0" index="0" disallow="bicycle" speed="3.65" length="4.67" shape="491.81,215.26 491.34,216.63 490.67,217.22 489.79,217.03 488.71,216.08"/>
    </edge>
    <edge id=":gneJ23_0" function="internal">
        <lane id=":gneJ23_0_0" index="0" disallow="bicycle" speed="3.65" length="4.67" shape="310.36,114.05 310.77,112.67 311.42,112.05 312.30,112.20 313.42,113.11"/>
    </edge>
    <edge id=":gneJ25_0" function="internal">
        <lane id=":gneJ25_0_0" index="0" disallow="bicycle" speed="3.65" length="4.67" shape="98.78,125.08 99.25,123.72 99.92,123.12 100.80,123.30 101.88,124.26"/>
    </edge>
    <edge id=":gneJ27_0" function="internal">
        <lane id=":gneJ27_0_0" index="0" disallow="bicycle" speed="4.54" length="7.18" width="5.00" shape="332.22,0.66 332.90,-1.45 333.91,-2.38 335.26,-2.12 336.94,-0.68"/>
    </edge>
    <edge id=":gneJ28_0" function="internal">
        <lane id=":gneJ28_0_0" index="0" disallow="bicycle" speed="4.28" length="7.20" shape="417.25,290.70 416.51,292.80 415.47,293.70 414.12,293.41 412.47,291.93"/>
    </edge>
    <edge id=":gneJ29_0" function="internal">
        <lane id=":gneJ29_0_0" index="0" allow="bicycle" speed="13.89" length="8.19" width="1.00" shape="435.93,145.84 433.55,145.97 431.89,145.58 430.23,145.21 427.87,145.42"/>
        <lane id=":gneJ29_0_1" index="1" disallow="bicycle" speed="13.89" length="8.19" shape="435.52,143.78 433.12,143.92 431.45,143.52 429.77,143.16 427.39,143.38"/>
    </edge>
    <edge id=":gneJ29_2" function="internal">
        <lane id=":gneJ29_2_0" index="0" allow="bicycle" speed="13.89" length="8.21" width="1.00" shape="426.19,138.22 433.94,135.77"/>
        <lane id=":gneJ29_2_1" index="1" disallow="bicycle" speed="13.89" length="8.21" shape="426.67,140.26 434.34,137.83"/>
        <lane id=":gneJ29_2_2" index="2" disallow="bicycle" speed="13.89" length="8.21" shape="426.67,140.26 429.10,140.09 430.80,140.56 432.52,141.07 434.97,140.97"/>
    </edge>
    <edge id=":gneJ30_0" function="internal">
        <lane id=":gneJ30_0_0" index="0" allow="bicycle" speed="13.89" length="14.40" width="1.00" shape="334.05,164.30 319.87,166.76"/>
    </edge>
    <edge id=":gneJ30_1" function="internal">
        <lane id=":gneJ30_1_0" index="0" allow="bicycle" speed="9.12" length="9.55" width="1.00" shape="334.05,164.30 329.58,164.36 325.91,162.91 325.13,162.09"/>
    </edge>
    <edge id=":gneJ30_2" function="internal">
        <lane id=":gneJ30_2_0" index="0" disallow="bicycle" speed="13.89" length="14.42" shape="333.70,162.23 319.50,164.69"/>
    </edge>
    <edge id=":gneJ30_3" function="internal">
        <lane id=":gneJ30_3_0" index="0" disallow="bicycle" speed="8.48" length="5.57" shape="333.70,162.23 330.05,162.27 328.28,161.55"/>
    </edge>
    <edge id=":gneJ30_4" function="internal">
        <lane id=":gneJ30_4_0" index="0" disallow="bicycle" speed="3.65" length="2.34" shape="333.70,162.23 332.39,161.64 331.86,160.92"/>
    </edge>
    <edge id=":gneJ30_15" function="internal">
        <lane id=":gneJ30_15_0" index="0" allow="bicycle" speed="9.12" length="7.92" width="1.00" shape="325.13,162.09 323.06,159.94 321.02,155.45"/>
    </edge>
    <edge id=":gneJ30_16" function="internal">
        <lane id=":gneJ30_16_0" index="0" disallow="bicycle" speed="8.48" length="8.84" shape="328.28,161.55 327.06,161.05 324.72,158.57 323.03,154.82"/>
    </edge>
    <edge id=":gneJ30_17" function="internal">
        <lane id=":gneJ30_17_0" index="0" disallow="bicycle" speed="3.65" length="2.34" shape="331.86,160.92 332.12,160.06 333.17,159.07"/>
    </edge>
    <edge id=":gneJ30_5" function="internal">
        <lane id=":gneJ30_5_0" index="0" allow="bicycle" speed="5.71" length="6.67" width="1.00" shape="328.09,153.25 328.89,155.11 329.95,156.35 331.26,156.98 332.82,157.00"/>
    </edge>
    <edge id=":gneJ30_6" function="internal">
        <lane id=":gneJ30_6_0" index="0" allow="bicycle" speed="8.53" length="18.60" width="1.00" shape="328.09,153.25 328.91,158.38 327.81,162.34 324.79,165.13 319.87,166.76"/>
    </edge>
    <edge id=":gneJ30_7" function="internal">
        <lane id=":gneJ30_7_0" index="0" disallow="bicycle" speed="7.07" length="9.74" shape="326.08,153.87 327.24,156.48 328.80,158.21 330.78,159.08 333.17,159.07"/>
    </edge>
    <edge id=":gneJ30_8" function="internal">
        <lane id=":gneJ30_8_0" index="0" disallow="bicycle" speed="7.84" length="14.90" shape="326.08,153.87 326.74,157.98 325.86,161.15 323.45,163.39 319.50,164.69"/>
    </edge>
    <edge id=":gneJ30_9" function="internal">
        <lane id=":gneJ30_9_0" index="0" disallow="bicycle" speed="3.65" length="4.67" shape="326.08,153.87 325.68,155.26 325.03,155.88 324.15,155.73 323.03,154.82"/>
    </edge>
    <edge id=":gneJ30_10" function="internal">
        <lane id=":gneJ30_10_0" index="0" allow="bicycle" speed="4.76" length="5.55" width="1.00" shape="318.57,159.48 320.04,158.99 320.94,158.16 321.27,156.97 321.02,155.45"/>
    </edge>
    <edge id=":gneJ30_11" function="internal">
        <lane id=":gneJ30_11_0" index="0" allow="bicycle" speed="13.89" length="14.47" width="1.00" shape="318.57,159.48 332.82,157.00"/>
    </edge>
    <edge id=":gneJ30_12" function="internal">
        <lane id=":gneJ30_12_0" index="0" disallow="bicycle" speed="6.32" length="3.91" shape="318.94,161.54 321.39,160.73 322.36,159.83"/>
    </edge>
    <edge id=":gneJ30_13" function="internal">
        <lane id=":gneJ30_13_0" index="0" disallow="bicycle" speed="13.89" length="14.45" shape="318.94,161.54 333.17,159.07"/>
    </edge>
    <edge id=":gneJ30_14" function="internal">
        <lane id=":gneJ30_14_0" index="0" disallow="bicycle" speed="3.65" length="2.34" shape="318.94,161.54 320.26,162.12 320.79,162.84"/>
    </edge>
    <edge id=":gneJ30_18" function="internal">
        <lane id=":gneJ30_18_0" index="0" disallow="bicycle" speed="6.32" length="5.35" shape="322.36,159.83 322.89,159.34 323.44,157.37 323.03,154.82"/>
    </edge>
    <edge id=":gneJ30_19" function="internal">
        <lane id=":gneJ30_19_0" index="0" disallow="bicycle" speed="3.65" length="2.34" shape="320.79,162.84 320.54,163.70 319.50,164.69"/>
    </edge>
    <edge id=":gneJ31_0" function="internal">
        <lane id=":gneJ31_0_0" index="0" allow="bicycle" speed="13.89" length="14.23" width="1.00" shape="126.73,199.24 112.71,201.68"/>
    </edge>
    <edge id=":gneJ31_1" function="internal">
        <lane id=":gneJ31_1_0" index="0" allow="bicycle" speed="8.98" length="9.55" width="1.00" shape="126.73,199.24 122.17,199.28 118.52,197.81 117.80,197.04"/>
    </edge>
    <edge id=":gneJ31_2" function="internal">
        <lane id=":gneJ31_2_0" index="0" disallow="bicycle" speed="13.89" length="14.28" shape="126.40,197.16 112.33,199.61"/>
    </edge>
    <edge id=":gneJ31_3" function="internal">
        <lane id=":gneJ31_3_0" index="0" disallow="bicycle" speed="8.33" length="5.57" shape="126.40,197.16 122.69,197.19 120.96,196.49"/>
    </edge>
    <edge id=":gneJ31_4" function="internal">
        <lane id=":gneJ31_4_0" index="0" disallow="bicycle" speed="3.65" length="2.34" shape="126.40,197.16 125.08,196.56 124.56,195.84"/>
    </edge>
    <edge id=":gneJ31_15" function="internal">
        <lane id=":gneJ31_15_0" index="0" allow="bicycle" speed="8.98" length="7.86" width="1.00" shape="117.80,197.04 115.77,194.83 113.92,190.33"/>
    </edge>
    <edge id=":gneJ31_16" function="internal">
        <lane id=":gneJ31_16_0" index="0" disallow="bicycle" speed="8.33" length="8.70" shape="120.96,196.49 119.71,195.97 117.47,193.51 115.95,189.80"/>
    </edge>
    <edge id=":gneJ31_17" function="internal">
        <lane id=":gneJ31_17_0" index="0" disallow="bicycle" speed="3.65" length="2.34" shape="124.56,195.84 124.83,194.98 125.89,194.00"/>
    </edge>
    <edge id=":gneJ31_5" function="internal">
        <lane id=":gneJ31_5_0" index="0" allow="bicycle" speed="5.49" length="6.33" width="1.00" shape="121.08,188.44 121.76,190.17 122.73,191.33 124.00,191.92 125.56,191.93"/>
    </edge>
    <edge id=":gneJ31_6" function="internal">
        <lane id=":gneJ31_6_0" index="0" allow="bicycle" speed="8.58" length="18.18" width="1.00" shape="121.08,188.44 121.66,193.44 120.46,197.31 117.48,200.06 112.71,201.68"/>
    </edge>
    <edge id=":gneJ31_7" function="internal">
        <lane id=":gneJ31_7_0" index="0" disallow="bicycle" speed="6.89" length="9.47" shape="119.05,188.98 120.06,191.49 121.54,193.17 123.48,194.01 125.89,194.00"/>
    </edge>
    <edge id=":gneJ31_8" function="internal">
        <lane id=":gneJ31_8_0" index="0" disallow="bicycle" speed="7.90" length="14.61" shape="119.05,188.98 119.52,192.99 118.55,196.11 116.16,198.31 112.33,199.61"/>
    </edge>
    <edge id=":gneJ31_9" function="internal">
        <lane id=":gneJ31_9_0" index="0" disallow="bicycle" speed="3.65" length="4.67" shape="119.05,188.98 118.58,190.34 117.91,190.93 117.03,190.75 115.95,189.80"/>
    </edge>
    <edge id=":gneJ31_10" function="internal">
        <lane id=":gneJ31_10_0" index="0" allow="bicycle" speed="4.86" length="5.59" width="1.00" shape="111.35,194.40 112.82,193.91 113.73,193.06 114.10,191.87 113.92,190.33"/>
    </edge>
    <edge id=":gneJ31_11" function="internal">
        <lane id=":gneJ31_11_0" index="0" allow="bicycle" speed="13.89" length="14.42" width="1.00" shape="111.35,194.40 125.56,191.93"/>
    </edge>
    <edge id=":gneJ31_12" function="internal">
        <lane id=":gneJ31_12_0" index="0" disallow="bicycle" speed="6.39" length="3.84" shape="111.74,196.47 114.14,195.65 115.10,194.77"/>
    </edge>
    <edge id=":gneJ31_13" function="internal">
        <lane id=":gneJ31_13_0" index="0" disallow="bicycle" speed="13.89" length="14.36" shape="111.74,196.47 125.89,194.00"/>
    </edge>
    <edge id=":gneJ31_14" function="internal">
        <lane id=":gneJ31_14_0" index="0" disallow="bicycle" speed="3.65" length="2.34" shape="111.74,196.47 113.06,197.04 113.60,197.75"/>
    </edge>
    <edge id=":gneJ31_18" function="internal">
        <lane id=":gneJ31_18_0" index="0" disallow="bicycle" speed="6.39" length="5.32" shape="115.10,194.77 115.64,194.27 116.25,192.32 115.95,189.80"/>
    </edge>
    <edge id=":gneJ31_19" function="internal">
        <lane id=":gneJ31_19_0" index="0" disallow="bicycle" speed="3.65" length="2.34" shape="113.60,197.75 113.36,198.61 112.33,199.61"/>
    </edge>
    <edge id=":gneJ4_0" function="internal">
        <lane id=":gneJ4_0_0" index="0" allow="bicycle" speed="13.89" length="24.48" width="1.00" shape="71.41,232.12 54.59,214.33"/>
    </edge>
    <edge id=":gneJ4_1" function="internal">
        <lane id=":gneJ4_1_0" index="0" allow="bicycle" speed="10.25" length="12.33" width="1.00" shape="71.41,232.12 67.23,226.23 66.21,221.23"/>
    </edge>
    <edge id=":gneJ4_2" function="internal">
        <lane id=":gneJ4_2_0" index="0" disallow="bicycle" speed="13.89" length="24.46" shape="72.94,230.67 56.13,212.90"/>
    </edge>
    <edge id=":gneJ4_3" function="internal">
        <lane id=":gneJ4_3_0" index="0" disallow="bicycle" speed="9.69" length="7.62" shape="72.94,230.67 69.33,225.59 69.05,224.23"/>
    </edge>
    <edge id=":gneJ4_4" function="internal">
        <lane id=":gneJ4_4_0" index="0" disallow="bicycle" speed="3.65" length="2.34" shape="72.94,230.67 72.69,229.25 72.99,228.41"/>
    </edge>
    <edge id=":gneJ4_15" function="internal">
        <lane id=":gneJ4_15_0" index="0" allow="bicycle" speed="10.25" length="13.74" width="1.00" shape="66.21,221.23 66.07,220.54 67.92,215.02 72.78,209.69"/>
    </edge>
    <edge id=":gneJ4_16" function="internal">
        <lane id=":gneJ4_16_0" index="0" disallow="bicycle" speed="9.69" length="14.88" shape="69.05,224.23 68.32,220.67 69.91,215.91 74.11,211.31"/>
    </edge>
    <edge id=":gneJ4_17" function="internal">
        <lane id=":gneJ4_17_0" index="0" disallow="bicycle" speed="3.65" length="2.34" shape="72.99,228.41 73.85,228.14 75.25,228.46"/>
    </edge>
    <edge id=":gneJ4_5" function="internal">
        <lane id=":gneJ4_5_0" index="0" allow="bicycle" speed="7.42" length="13.49" width="1.00" shape="77.48,215.41 74.96,218.17 74.01,221.02 74.61,223.97 76.77,227.01"/>
    </edge>
    <edge id=":gneJ4_6" function="internal">
        <lane id=":gneJ4_6_0" index="0" allow="bicycle" speed="10.74" length="25.76" width="1.00" shape="77.48,215.41 71.42,219.15 65.59,220.21 59.98,218.61 54.59,214.33"/>
    </edge>
    <edge id=":gneJ4_7" function="internal">
        <lane id=":gneJ4_7_0" index="0" disallow="bicycle" speed="8.50" length="17.06" shape="76.15,213.79 72.96,217.27 71.75,220.88 72.52,224.61 75.25,228.46"/>
    </edge>
    <edge id=":gneJ4_8" function="internal">
        <lane id=":gneJ4_8_0" index="0" disallow="bicycle" speed="10.20" length="22.53" shape="76.15,213.79 70.83,217.07 65.73,218.01 60.82,216.62 56.13,212.90"/>
    </edge>
    <edge id=":gneJ4_9" function="internal">
        <lane id=":gneJ4_9_0" index="0" disallow="bicycle" speed="3.65" length="4.67" shape="76.15,213.79 74.71,213.93 73.89,213.57 73.69,212.69 74.11,211.31"/>
    </edge>
    <edge id=":gneJ4_10" function="internal">
        <lane id=":gneJ4_10_0" index="0" allow="bicycle" speed="8.06" length="14.39" width="1.00" shape="59.99,209.27 62.96,211.61 66.09,212.46 69.36,211.82 72.78,209.69"/>
    </edge>
    <edge id=":gneJ4_11" function="internal">
        <lane id=":gneJ4_11_0" index="0" allow="bicycle" speed="13.89" length="24.42" width="1.00" shape="59.99,209.27 76.77,227.01"/>
    </edge>
    <edge id=":gneJ4_12" function="internal">
        <lane id=":gneJ4_12_0" index="0" disallow="bicycle" speed="9.07" length="5.49" shape="58.46,210.71 62.12,213.60 62.92,213.82"/>
    </edge>
    <edge id=":gneJ4_13" function="internal">
        <lane id=":gneJ4_13_0" index="0" disallow="bicycle" speed="13.89" length="24.44" shape="58.46,210.71 75.25,228.46"/>
    </edge>
    <edge id=":gneJ4_14" function="internal">
        <lane id=":gneJ4_14_0" index="0" disallow="bicycle" speed="3.65" length="2.34" shape="58.46,210.71 58.70,212.13 58.39,212.97"/>
    </edge>
    <edge id=":gneJ4_18" function="internal">
        <lane id=":gneJ4_18_0" index="0" disallow="bicycle" speed="9.07" length="12.12" shape="62.92,213.82 65.94,214.66 69.94,213.90 74.11,211.31"/>
    </edge>
    <edge id=":gneJ4_19" function="internal">
        <lane id=":gneJ4_19_0" index="0" disallow="bicycle" speed="3.65" length="2.34" shape="58.39,212.97 57.53,213.22 56.13,212.90"/>
    </edge>
    <edge id=":gneJ5_0" function="internal">
        <lane id=":gneJ5_0_0" index="0" allow="bicycle" speed="13.89" length="0.29" width="1.00" shape="82.32,211.44 82.24,211.49"/>
        <lane id=":gneJ5_0_1" index="1" disallow="bicycle" speed="13.89" length="0.29" shape="81.32,209.59 81.19,209.66 81.10,209.72 81.02,209.78 80.91,209.87"/>
    </edge>
    <edge id=":gneJ5_2" function="internal">
        <lane id=":gneJ5_2_0" index="0" allow="bicycle" speed="13.89" length="1.30" width="1.00" shape="77.54,205.77 77.89,205.50 78.13,205.31 78.39,205.16 78.78,204.94"/>
        <lane id=":gneJ5_2_1" index="1" disallow="bicycle" speed="13.89" length="1.30" shape="78.88,207.40 79.13,207.19 79.31,207.06 79.50,206.94 79.78,206.78"/>
    </edge>
    <edge id=":gneJ6_0" function="internal">
        <lane id=":gneJ6_0_0" index="0" allow="bicycle" speed="5.84" length="7.18" width="1.00" shape="183.17,194.50 182.41,192.74 181.26,191.58 179.70,191.02 177.74,191.06"/>
    </edge>
    <edge id=":gneJ6_1" function="internal">
        <lane id=":gneJ6_1_0" index="0" allow="bicycle" speed="13.89" length="15.28" width="1.00" shape="183.17,194.50 179.12,179.77"/>
    </edge>
    <edge id=":gneJ6_2" function="internal">
        <lane id=":gneJ6_2_0" index="0" allow="bicycle" speed="8.27" length="17.10" width="1.00" shape="183.17,194.50 183.20,190.42 184.97,186.32 187.96,182.99 191.66,181.27"/>
    </edge>
    <edge id=":gneJ6_3" function="internal">
        <lane id=":gneJ6_3_0" index="0" disallow="bicycle" speed="7.17" length="10.32" shape="185.20,193.96 184.11,191.41 182.45,189.74 180.21,188.93 177.40,188.99"/>
    </edge>
    <edge id=":gneJ6_4" function="internal">
        <lane id=":gneJ6_4_0" index="0" disallow="bicycle" speed="13.89" length="15.31" shape="185.20,193.96 181.14,179.20"/>
    </edge>
    <edge id=":gneJ6_5" function="internal">
        <lane id=":gneJ6_5_0" index="0" disallow="bicycle" speed="7.63" length="13.73" shape="185.20,193.96 185.22,190.68 186.64,187.39 189.04,184.72 192.01,183.34"/>
    </edge>
    <edge id=":gneJ6_6" function="internal">
        <lane id=":gneJ6_6_0" index="0" disallow="bicycle" speed="3.65" length="4.67" shape="185.20,193.96 185.66,192.59 186.33,192.00 187.21,192.18 188.29,193.13"/>
    </edge>
    <edge id=":gneJ6_7" function="internal">
        <lane id=":gneJ6_7_0" index="0" allow="bicycle" speed="4.82" length="5.57" width="1.00" shape="192.90,188.56 191.42,189.04 190.50,189.87 190.13,191.05 190.32,192.59"/>
    </edge>
    <edge id=":gneJ6_8" function="internal">
        <lane id=":gneJ6_8_0" index="0" allow="bicycle" speed="13.89" length="15.36" width="1.00" shape="192.90,188.56 177.74,191.06"/>
    </edge>
    <edge id=":gneJ6_9" function="internal">
        <lane id=":gneJ6_9_0" index="0" allow="bicycle" speed="9.21" length="3.17" width="1.00" shape="192.90,188.56 189.73,188.65"/>
    </edge>
    <edge id=":gneJ6_10" function="internal">
        <lane id=":gneJ6_10_0" index="0" disallow="bicycle" speed="6.36" length="3.90" shape="192.54,186.49 190.11,187.28 189.11,188.17"/>
    </edge>
    <edge id=":gneJ6_11" function="internal">
        <lane id=":gneJ6_11_0" index="0" disallow="bicycle" speed="13.89" length="15.34" shape="192.54,186.49 177.40,188.99"/>
    </edge>
    <edge id=":gneJ6_12" function="internal">
        <lane id=":gneJ6_12_0" index="0" disallow="bicycle" speed="8.57" length="4.27" shape="192.54,186.49 188.48,186.60 188.29,186.53"/>
    </edge>
    <edge id=":gneJ6_13" function="internal">
        <lane id=":gneJ6_13_0" index="0" disallow="bicycle" speed="3.65" length="2.34" shape="192.54,186.49 191.23,185.90 190.70,185.18"/>
    </edge>
    <edge id=":gneJ6_28" function="internal">
        <lane id=":gneJ6_28_0" index="0" allow="bicycle" speed="9.21" length="15.07" width="1.00" shape="189.73,188.65 187.99,188.70 184.06,187.28 181.10,184.30 179.12,179.77"/>
    </edge>
    <edge id=":gneJ6_29" function="internal">
        <lane id=":gneJ6_29_0" index="0" disallow="bicycle" speed="6.36" length="5.30" shape="189.11,188.17 188.59,188.64 187.99,190.59 188.29,193.13"/>
    </edge>
    <edge id=":gneJ6_30" function="internal">
        <lane id=":gneJ6_30_0" index="0" disallow="bicycle" speed="8.57" length="10.83" shape="188.29,186.53 185.23,185.43 182.78,182.96 181.14,179.20"/>
    </edge>
    <edge id=":gneJ6_31" function="internal">
        <lane id=":gneJ6_31_0" index="0" disallow="bicycle" speed="3.65" length="2.34" shape="190.70,185.18 190.96,184.33 192.01,183.34"/>
    </edge>
    <edge id=":gneJ6_14" function="internal">
        <lane id=":gneJ6_14_0" index="0" allow="bicycle" speed="5.86" length="7.20" width="1.00" shape="186.24,177.76 187.03,179.56 188.19,180.75 189.73,181.32 191.66,181.27"/>
    </edge>
    <edge id=":gneJ6_15" function="internal">
        <lane id=":gneJ6_15_0" index="0" allow="bicycle" speed="13.89" length="15.38" width="1.00" shape="186.24,177.76 190.32,192.59"/>
    </edge>
    <edge id=":gneJ6_16" function="internal">
        <lane id=":gneJ6_16_0" index="0" allow="bicycle" speed="8.23" length="17.21" width="1.00" shape="186.24,177.76 186.24,181.86 184.47,186.00 181.46,189.35 177.74,191.06"/>
    </edge>
    <edge id=":gneJ6_17" function="internal">
        <lane id=":gneJ6_17_0" index="0" disallow="bicycle" speed="7.19" length="10.33" shape="184.22,178.33 185.34,180.91 187.02,182.60 189.24,183.41 192.01,183.34"/>
    </edge>
    <edge id=":gneJ6_18" function="internal">
        <lane id=":gneJ6_18_0" index="0" disallow="bicycle" speed="13.89" length="15.35" shape="184.22,178.33 188.29,193.13"/>
    </edge>
    <edge id=":gneJ6_19" function="internal">
        <lane id=":gneJ6_19_0" index="0" disallow="bicycle" speed="7.59" length="13.79" shape="184.22,178.33 184.22,181.61 182.80,184.93 180.39,187.61 177.40,188.99"/>
    </edge>
    <edge id=":gneJ6_20" function="internal">
        <lane id=":gneJ6_20_0" index="0" disallow="bicycle" speed="3.65" length="4.67" shape="184.22,178.33 183.77,179.70 183.11,180.30 182.23,180.13 181.14,179.20"/>
    </edge>
    <edge id=":gneJ6_21" function="internal">
        <lane id=":gneJ6_21_0" index="0" allow="bicycle" speed="4.78" length="5.56" width="1.00" shape="176.57,183.76 178.04,183.30 178.96,182.48 179.32,181.30 179.12,179.77"/>
    </edge>
    <edge id=":gneJ6_22" function="internal">
        <lane id=":gneJ6_22_0" index="0" allow="bicycle" speed="13.89" length="15.30" width="1.00" shape="176.57,183.76 191.66,181.27"/>
    </edge>
    <edge id=":gneJ6_23" function="internal">
        <lane id=":gneJ6_23_0" index="0" allow="bicycle" speed="9.20" length="3.18" width="1.00" shape="176.57,183.76 179.74,183.69"/>
    </edge>
    <edge id=":gneJ6_24" function="internal">
        <lane id=":gneJ6_24_0" index="0" disallow="bicycle" speed="6.33" length="3.96" shape="176.90,185.83 179.36,185.07 180.39,184.14"/>
    </edge>
    <edge id=":gneJ6_25" function="internal">
        <lane id=":gneJ6_25_0" index="0" disallow="bicycle" speed="13.89" length="15.31" shape="176.90,185.83 192.01,183.34"/>
    </edge>
    <edge id=":gneJ6_26" function="internal">
        <lane id=":gneJ6_26_0" index="0" disallow="bicycle" speed="8.56" length="4.31" shape="176.90,185.83 181.00,185.74 181.19,185.81"/>
    </edge>
    <edge id=":gneJ6_27" function="internal">
        <lane id=":gneJ6_27_0" index="0" disallow="bicycle" speed="3.65" length="2.34" shape="176.90,185.83 178.21,186.43 178.73,187.16"/>
    </edge>
    <edge id=":gneJ6_32" function="internal">
        <lane id=":gneJ6_32_0" index="0" allow="bicycle" speed="9.20" length="15.06" width="1.00" shape="179.74,183.69 181.52,183.65 185.46,185.09 188.39,188.07 190.32,192.59"/>
    </edge>
    <edge id=":gneJ6_33" function="internal">
        <lane id=":gneJ6_33_0" index="0" disallow="bicycle" speed="6.33" length="5.27" shape="180.39,184.14 180.88,183.70 181.48,181.75 181.14,179.20"/>
    </edge>
    <edge id=":gneJ6_34" function="internal">
        <lane id=":gneJ6_34_0" index="0" disallow="bicycle" speed="8.56" length="10.79" shape="181.19,185.81 184.27,186.93 186.70,189.39 188.29,193.13"/>
    </edge>
    <edge id=":gneJ6_35" function="internal">
        <lane id=":gneJ6_35_0" index="0" disallow="bicycle" speed="3.65" length="2.34" shape="178.73,187.16 178.46,188.01 177.40,188.99"/>
    </edge>
    <edge id=":gneJ7_0" function="internal">
        <lane id=":gneJ7_0_0" index="0" allow="bicycle" speed="8.27" length="14.70" width="1.00" shape="289.16,181.58 287.55,177.76 285.22,175.23 282.15,173.99 278.35,174.05"/>
    </edge>
    <edge id=":gneJ7_1" function="internal">
        <lane id=":gneJ7_1_0" index="0" allow="bicycle" speed="10.20" length="26.20" width="1.00" shape="289.16,181.58 288.23,174.36 289.92,168.79 294.22,164.86 301.13,162.58"/>
    </edge>
    <edge id=":gneJ7_2" function="internal">
        <lane id=":gneJ7_2_0" index="0" disallow="bicycle" speed="9.26" length="17.84" shape="291.19,181.02 289.24,176.41 286.39,173.37 282.64,171.90 277.99,171.98"/>
    </edge>
    <edge id=":gneJ7_3" function="internal">
        <lane id=":gneJ7_3_0" index="0" disallow="bicycle" speed="9.63" length="22.57" shape="291.19,181.02 290.39,174.80 291.84,170.00 295.54,166.61 301.49,164.65"/>
    </edge>
    <edge id=":gneJ7_4" function="internal">
        <lane id=":gneJ7_4_0" index="0" disallow="bicycle" speed="3.65" length="4.67" shape="291.19,181.02 291.63,179.65 292.30,179.05 293.18,179.22 294.27,180.16"/>
    </edge>
    <edge id=":gneJ7_5" function="internal">
        <lane id=":gneJ7_5_0" index="0" allow="bicycle" speed="7.35" length="13.42" width="1.00" shape="302.42,169.86 298.88,171.03 296.68,173.05 295.82,175.90 296.29,179.60"/>
    </edge>
    <edge id=":gneJ7_6" function="internal">
        <lane id=":gneJ7_6_0" index="0" allow="bicycle" speed="13.89" length="24.44" width="1.00" shape="302.42,169.86 278.35,174.05"/>
    </edge>
    <edge id=":gneJ7_7" function="internal">
        <lane id=":gneJ7_7_0" index="0" disallow="bicycle" speed="8.44" length="5.49" shape="302.05,167.80 297.56,169.28 297.00,169.79"/>
    </edge>
    <edge id=":gneJ7_8" function="internal">
        <lane id=":gneJ7_8_0" index="0" disallow="bicycle" speed="13.89" length="24.42" shape="302.05,167.80 277.99,171.98"/>
    </edge>
    <edge id=":gneJ7_9" function="internal">
        <lane id=":gneJ7_9_0" index="0" disallow="bicycle" speed="3.65" length="2.34" shape="302.05,167.80 300.73,167.22 300.20,166.50"/>
    </edge>