<?xml version="1.0" encoding="UTF-8"?>

<!-- generated on Thu 07 Oct 2021 08:36:56 PM CEST by Eclipse SUMO netedit Version v1_7_0+1095-7111e26d53
<configuration xmlns:xsi="http://www.w3.org/2001/XMLSchema-instance" xsi:noNamespaceSchemaLocation="http://sumo.dlr.de/xsd/netconvertConfiguration.xsd">

    <input>
        <sumo-net-file value="stolpedalsvej.net.xml"/>
    </input>

    <output>
        <output-file value="stolpedalsvej.net.xml"/>
    </output>

    <processing>
        <geometry.min-radius.fix.railways value="false"/>
        <geometry.max-grade.fix value="false"/>
        <offset.disable-normalization value="true"/>
        <lefthand value="false"/>
    </processing>

    <junctions>
        <no-turnarounds value="true"/>
        <junctions.corner-detail value="5"/>
        <junctions.limit-turn-speed value="5.5"/>
        <rectangular-lane-cut value="false"/>
    </junctions>

    <pedestrian>
        <walkingareas value="false"/>
    </pedestrian>

    <report>
        <aggregate-warnings value="5"/>
    </report>

</configuration>
-->

<net version="1.6" junctionCornerDetail="5" limitTurnSpeed="5.50" xmlns:xsi="http://www.w3.org/2001/XMLSchema-instance" xsi:noNamespaceSchemaLocation="http://sumo.dlr.de/xsd/net_file.xsd">

    <location netOffset="235.04,172.65" convBoundary="0.00,0.00,512.90,326.72" origBoundary="-10000000000.00,-10000000000.00,10000000000.00,10000000000.00" projParameter="!"/>

    <edge id=":gneJ10_0" function="internal">
        <lane id=":gneJ10_0_0" index="0" speed="4.54" length="8.49" shape="509.35,121.57 511.81,122.48 512.85,123.72 512.48,125.31 510.69,127.22"/>
    </edge>
    <edge id=":gneJ11_0" function="internal">
        <lane id=":gneJ11_0_0" index="0" speed="3.65" length="4.67" shape="326.61,296.62 326.16,297.99 325.50,298.59 324.62,298.42 323.53,297.48"/>
    </edge>
    <edge id=":gneJ13_0" function="internal">
        <lane id=":gneJ13_0_0" index="0" speed="3.65" length="4.67" shape="224.03,326.31 223.56,327.67 222.89,328.27 222.02,328.09 220.93,327.13"/>
    </edge>
    <edge id=":gneJ14_0" function="internal">
        <lane id=":gneJ14_0_0" index="0" speed="13.89" length="0.51" shape="93.24,203.18 93.10,203.21 93.00,203.24 92.90,203.28 92.77,203.35"/>
    </edge>
    <edge id=":gneJ14_1" function="internal">
        <lane id=":gneJ14_1_0" index="0" speed="12.74" length="1.52" shape="91.24,200.54 91.63,200.33 91.92,200.20 92.21,200.12 92.66,200.03"/>
    </edge>
    <edge id=":gneJ15_0" function="internal">
        <lane id=":gneJ15_0_0" index="0" speed="3.65" length="4.67" shape="164.64,120.59 165.08,119.22 165.75,118.62 166.62,118.79 167.72,119.73"/>
    </edge>
    <edge id=":gneJ16_0" function="internal">
        <lane id=":gneJ16_0_0" index="0" speed="13.89" length="8.01" width="5.00" shape="362.95,112.59 362.48,110.26 362.35,108.63 362.20,107.00 361.68,104.69"/>
    </edge>
    <edge id=":gneJ16_1" function="internal">
        <lane id=":gneJ16_1_0" index="0" speed="13.89" length="8.26" shape="366.49,103.33 367.29,105.59 368.05,107.07 368.80,108.55 369.56,110.82"/>
        <lane id=":gneJ16_1_1" index="1" speed="13.89" length="8.26" shape="366.49,103.33 366.82,105.75 366.50,107.48 366.18,109.21 366.47,111.64"/>
    </edge>
    <edge id=":gneJ17_0" function="internal">
        <lane id=":gneJ17_0_0" index="0" speed="13.89" length="8.33" shape="390.34,209.81 389.59,207.51 388.91,206.00 388.23,204.48 387.52,202.18"/>
        <lane id=":gneJ17_0_1" index="1" speed="13.89" length="8.33" shape="390.34,209.81 390.07,207.35 390.46,205.61 390.86,203.86 390.62,201.40"/>
    </edge>
    <edge id=":gneJ17_2" function="internal">
        <lane id=":gneJ17_2_0" index="0" speed="13.89" length="8.35" shape="393.72,200.61 394.56,202.92 395.49,204.37 396.42,205.83 397.23,208.14"/>
    </edge>
    <edge id=":gneJ18_0" function="internal">
        <lane id=":gneJ18_0_0" index="0" speed="3.65" length="4.67" shape="-1.17,151.89 -1.40,150.46 -1.10,149.62 -0.24,149.37 1.17,149.69"/>
    </edge>
    <edge id=":gneJ19_0" function="internal">
        <lane id=":gneJ19_0_0" index="0" speed="3.65" length="4.67" shape="150.31,307.26 150.56,308.68 150.25,309.52 149.40,309.78 147.99,309.46"/>
    </edge>
    <edge id=":gneJ20_0" function="internal">
        <lane id=":gneJ20_0_0" index="0" speed="3.65" length="4.67" shape="491.81,215.26 491.34,216.63 490.67,217.22 489.79,217.03 488.71,216.08"/>
    </edge>
    <edge id=":gneJ23_0" function="internal">
        <lane id=":gneJ23_0_0" index="0" speed="3.65" length="4.67" shape="310.36,114.05 310.77,112.67 311.42,112.05 312.30,112.20 313.42,113.11"/>
    </edge>
    <edge id=":gneJ25_0" function="internal">
        <lane id=":gneJ25_0_0" index="0" speed="3.65" length="4.67" shape="98.78,125.08 99.25,123.72 99.92,123.12 100.80,123.30 101.88,124.26"/>
    </edge>
    <edge id=":gneJ27_0" function="internal">
        <lane id=":gneJ27_0_0" index="0" speed="4.54" length="7.18" width="5.00" shape="332.22,0.66 332.90,-1.45 333.91,-2.38 335.26,-2.12 336.94,-0.68"/>
    </edge>
    <edge id=":gneJ28_0" function="internal">
        <lane id=":gneJ28_0_0" index="0" speed="4.28" length="7.20" shape="417.25,290.70 416.51,292.80 415.47,293.70 414.12,293.41 412.47,291.93"/>
    </edge>
    <edge id=":gneJ29_0" function="internal">
        <lane id=":gneJ29_0_0" index="0" speed="13.89" length="8.22" shape="435.52,143.78 433.12,143.92 431.45,143.52 429.77,143.16 427.39,143.38"/>
    </edge>
    <edge id=":gneJ29_1" function="internal">
        <lane id=":gneJ29_1_0" index="0" speed="13.89" length="8.25" shape="426.67,140.26 434.34,137.83"/>
        <lane id=":gneJ29_1_1" index="1" speed="13.89" length="8.25" shape="426.67,140.26 429.10,140.09 430.80,140.56 432.52,141.07 434.97,140.97"/>
    </edge>
    <edge id=":gneJ30_0" function="internal">
        <lane id=":gneJ30_0_0" index="0" speed="13.89" length="14.41" shape="333.83,162.21 319.63,164.67"/>
    </edge>
    <edge id=":gneJ30_1" function="internal">
        <lane id=":gneJ30_1_0" index="0" speed="8.47" length="5.67" shape="333.83,162.21 330.13,162.27 328.29,161.54"/>
    </edge>
    <edge id=":gneJ30_2" function="internal">
        <lane id=":gneJ30_2_0" index="0" speed="3.65" length="2.34" shape="333.83,162.21 332.51,161.62 331.98,160.90"/>
    </edge>
    <edge id=":gneJ30_9" function="internal">
        <lane id=":gneJ30_9_0" index="0" speed="8.47" length="8.72" shape="328.29,161.54 327.10,161.07 324.75,158.64 323.07,154.95"/>
    </edge>
    <edge id=":gneJ30_10" function="internal">
        <lane id=":gneJ30_10_0" index="0" speed="3.65" length="2.34" shape="331.98,160.90 332.25,160.04 333.30,159.05"/>
    </edge>
    <edge id=":gneJ30_3" function="internal">
        <lane id=":gneJ30_3_0" index="0" speed="7.07" length="9.72" shape="326.12,154.00 327.27,156.55 328.84,158.24 330.85,159.07 333.30,159.05"/>
    </edge>
    <edge id=":gneJ30_4" function="internal">
        <lane id=":gneJ30_4_0" index="0" speed="7.79" length="14.69" shape="326.12,154.00 326.77,158.05 325.90,161.18 323.52,163.38 319.63,164.67"/>
    </edge>
    <edge id=":gneJ30_5" function="internal">
        <lane id=":gneJ30_5_0" index="0" speed="3.65" length="4.67" shape="326.12,154.00 325.72,155.38 325.07,156.00 324.19,155.86 323.07,154.95"/>
    </edge>
    <edge id=":gneJ30_6" function="internal">
        <lane id=":gneJ30_6_0" index="0" speed="6.25" length="9.05" shape="319.07,161.52 321.47,160.73 322.93,159.37 323.47,157.44 323.07,154.95"/>
    </edge>
    <edge id=":gneJ30_7" function="internal">
        <lane id=":gneJ30_7_0" index="0" speed="13.89" length="14.44" shape="319.07,161.52 333.30,159.05"/>
    </edge>
    <edge id=":gneJ30_8" function="internal">
        <lane id=":gneJ30_8_0" index="0" speed="3.65" length="2.34" shape="319.07,161.52 320.39,162.10 320.92,162.82"/>
    </edge>
    <edge id=":gneJ30_11" function="internal">
        <lane id=":gneJ30_11_0" index="0" speed="3.65" length="2.34" shape="320.92,162.82 320.67,163.67 319.63,164.67"/>
    </edge>
    <edge id=":gneJ31_0" function="internal">
        <lane id=":gneJ31_0_0" index="0" speed="13.89" length="14.30" shape="126.49,197.15 112.40,199.60"/>
    </edge>
    <edge id=":gneJ31_1" function="internal">
        <lane id=":gneJ31_1_0" index="0" speed="8.33" length="5.65" shape="126.49,197.15 122.74,197.19 120.98,196.48"/>
    </edge>
    <edge id=":gneJ31_2" function="internal">
        <lane id=":gneJ31_2_0" index="0" speed="3.65" length="2.34" shape="126.49,197.15 125.18,196.55 124.66,195.82"/>
    </edge>
    <edge id=":gneJ31_9" function="internal">
        <lane id=":gneJ31_9_0" index="0" speed="8.33" length="8.63" shape="120.98,196.48 119.74,195.99 117.49,193.55 115.97,189.87"/>
    </edge>
    <edge id=":gneJ31_10" function="internal">
        <lane id=":gneJ31_10_0" index="0" speed="3.65" length="2.34" shape="124.66,195.82 124.93,194.97 125.98,193.99"/>
    </edge>
    <edge id=":gneJ31_3" function="internal">
        <lane id=":gneJ31_3_0" index="0" speed="6.90" length="9.49" shape="119.07,189.05 120.08,191.53 121.57,193.19 123.53,194.00 125.98,193.99"/>
    </edge>
    <edge id=":gneJ31_4" function="internal">
        <lane id=":gneJ31_4_0" index="0" speed="7.87" length="14.48" shape="119.07,189.05 119.53,193.03 118.58,196.12 116.20,198.31 112.40,199.60"/>
    </edge>
    <edge id=":gneJ31_5" function="internal">
        <lane id=":gneJ31_5_0" index="0" speed="3.65" length="4.67" shape="119.07,189.05 118.60,190.42 117.93,191.01 117.05,190.83 115.97,189.87"/>
    </edge>
    <edge id=":gneJ31_6" function="internal">
        <lane id=":gneJ31_6_0" index="0" speed="6.35" length="9.04" shape="111.81,196.45 114.18,195.65 115.67,194.28 116.26,192.36 115.97,189.87"/>
    </edge>
    <edge id=":gneJ31_7" function="internal">
        <lane id=":gneJ31_7_0" index="0" speed="13.89" length="14.38" shape="111.81,196.45 125.98,193.99"/>
    </edge>
    <edge id=":gneJ31_8" function="internal">
        <lane id=":gneJ31_8_0" index="0" speed="3.65" length="2.34" shape="111.81,196.45 113.14,197.02 113.68,197.73"/>
    </edge>
    <edge id=":gneJ31_11" function="internal">
        <lane id=":gneJ31_11_0" index="0" speed="3.65" length="2.34" shape="113.68,197.73 113.43,198.59 112.40,199.60"/>
    </edge>
    <edge id=":gneJ4_0" function="internal">
        <lane id=":gneJ4_0_0" index="0" speed="13.89" length="22.45" shape="72.19,229.89 56.77,213.58"/>
    </edge>
    <edge id=":gneJ4_1" function="internal">
        <lane id=":gneJ4_1_0" index="0" speed="9.34" length="7.27" shape="72.19,229.89 68.86,225.20 68.55,223.71"/>
    </edge>
    <edge id=":gneJ4_2" function="internal">
        <lane id=":gneJ4_2_0" index="0" speed="3.65" length="2.34" shape="72.19,229.89 71.95,228.47 72.25,227.63"/>
    </edge>
    <edge id=":gneJ4_9" function="internal">
        <lane id=":gneJ4_9_0" index="0" speed="9.34" length="13.52" shape="68.55,223.71 67.93,220.65 69.40,216.25 73.28,212.00"/>
    </edge>
    <edge id=":gneJ4_10" function="internal">
        <lane id=":gneJ4_10_0" index="0" speed="3.65" length="2.34" shape="72.25,227.63 73.10,227.36 74.51,227.68"/>
    </edge>
    <edge id=":gneJ4_3" function="internal">
        <lane id=":gneJ4_3_0" index="0" speed="8.09" length="15.36" shape="75.31,214.47 72.45,217.61 71.36,220.86 72.05,224.22 74.51,227.68"/>
    </edge>
    <edge id=":gneJ4_4" function="internal">
        <lane id=":gneJ4_4_0" index="0" speed="9.84" length="20.88" shape="75.31,214.47 70.41,217.50 65.68,218.36 61.13,217.05 56.77,213.58"/>
    </edge>
    <edge id=":gneJ4_5" function="internal">
        <lane id=":gneJ4_5_0" index="0" speed="3.65" length="4.67" shape="75.31,214.47 73.88,214.61 73.06,214.25 72.86,213.38 73.28,212.00"/>
    </edge>
    <edge id=":gneJ4_6" function="internal">
        <lane id=":gneJ4_6_0" index="0" speed="8.66" length="15.96" shape="59.10,211.39 62.42,214.02 65.90,215.00 69.52,214.33 73.28,212.00"/>
    </edge>
    <edge id=":gneJ4_7" function="internal">
        <lane id=":gneJ4_7_0" index="0" speed="13.89" length="22.43" shape="59.10,211.39 74.51,227.68"/>
    </edge>
    <edge id=":gneJ4_8" function="internal">
        <lane id=":gneJ4_8_0" index="0" speed="3.65" length="2.34" shape="59.10,211.39 59.34,212.81 59.03,213.65"/>
    </edge>
    <edge id=":gneJ4_11" function="internal">
        <lane id=":gneJ4_11_0" index="0" speed="3.65" length="2.34" shape="59.03,213.65 58.17,213.91 56.77,213.58"/>
    </edge>
    <edge id=":gneJ5_0" function="internal">
        <lane id=":gneJ5_0_0" index="0" speed="13.89" length="0.30" shape="81.23,209.64 81.15,209.68 81.10,209.72 81.05,209.75 80.98,209.81"/>
    </edge>
    <edge id=":gneJ5_1" function="internal">
        <lane id=":gneJ5_1_0" index="0" speed="13.89" length="0.91" shape="78.95,207.34 79.16,207.17 79.31,207.06 79.46,206.96 79.70,206.83"/>
    </edge>
    <edge id=":gneJ6_0" function="internal">
        <lane id=":gneJ6_0_0" index="0" speed="7.11" length="10.13" shape="185.17,193.86 184.10,191.36 182.47,189.71 180.28,188.91 177.53,188.97"/>
    </edge>
    <edge id=":gneJ6_1" function="internal">
        <lane id=":gneJ6_1_0" index="0" speed="13.89" length="15.09" shape="185.17,193.86 181.17,179.31"/>
    </edge>
    <edge id=":gneJ6_2" function="internal">
        <lane id=":gneJ6_2_0" index="0" speed="7.84" length="14.56" shape="185.17,193.86 184.69,189.85 185.66,186.76 188.06,184.59 191.91,183.35"/>
    </edge>
    <edge id=":gneJ6_3" function="internal">
        <lane id=":gneJ6_3_0" index="0" speed="3.65" length="4.67" shape="185.17,193.86 185.63,192.50 186.30,191.90 187.18,192.08 188.26,193.03"/>
    </edge>
    <edge id=":gneJ6_4" function="internal">
        <lane id=":gneJ6_4_0" index="0" speed="6.31" length="9.04" shape="192.45,186.51 190.06,187.28 188.56,188.62 187.97,190.54 188.26,193.03"/>
    </edge>
    <edge id=":gneJ6_5" function="internal">
        <lane id=":gneJ6_5_0" index="0" speed="13.89" length="15.12" shape="192.45,186.51 177.53,188.97"/>
    </edge>
    <edge id=":gneJ6_6" function="internal">
        <lane id=":gneJ6_6_0" index="0" speed="8.52" length="6.18" shape="192.45,186.51 188.43,186.62 186.40,185.89"/>
    </edge>
    <edge id=":gneJ6_7" function="internal">
        <lane id=":gneJ6_7_0" index="0" speed="3.65" length="2.34" shape="192.45,186.51 191.13,185.92 190.60,185.20"/>
    </edge>
    <edge id=":gneJ6_16" function="internal">
        <lane id=":gneJ6_16_0" index="0" speed="8.52" length="8.74" shape="186.40,185.89 185.21,185.46 182.79,183.02 181.17,179.31"/>
    </edge>
    <edge id=":gneJ6_17" function="internal">
        <lane id=":gneJ6_17_0" index="0" speed="3.65" length="2.34" shape="190.60,185.20 190.86,184.34 191.91,183.35"/>
    </edge>
    <edge id=":gneJ6_8" function="internal">
        <lane id=":gneJ6_8_0" index="0" speed="7.13" length="10.15" shape="184.25,178.45 185.36,180.98 187.00,182.64 189.19,183.43 191.91,183.35"/>
    </edge>
    <edge id=":gneJ6_9" function="internal">
        <lane id=":gneJ6_9_0" index="0" speed="13.89" length="15.13" shape="184.25,178.45 188.26,193.03"/>
    </edge>
    <edge id=":gneJ6_10" function="internal">
        <lane id=":gneJ6_10_0" index="0" speed="7.81" length="14.65" shape="184.25,178.45 184.79,182.49 183.84,185.60 181.42,187.76 177.53,188.97"/>
    </edge>
    <edge id=":gneJ6_11" function="internal">
        <lane id=":gneJ6_11_0" index="0" speed="3.65" length="4.67" shape="184.25,178.45 183.81,179.82 183.15,180.42 182.27,180.25 181.17,179.31"/>
    </edge>
    <edge id=":gneJ6_12" function="internal">
        <lane id=":gneJ6_12_0" index="0" speed="6.27" length="9.04" shape="177.02,185.81 179.43,185.06 180.92,183.73 181.50,181.81 181.17,179.31"/>
    </edge>
    <edge id=":gneJ6_13" function="internal">
        <lane id=":gneJ6_13_0" index="0" speed="13.89" length="15.09" shape="177.02,185.81 191.91,183.35"/>
    </edge>
    <edge id=":gneJ6_14" function="internal">
        <lane id=":gneJ6_14_0" index="0" speed="8.51" length="6.14" shape="177.02,185.81 181.07,185.73 183.03,186.44"/>
    </edge>
    <edge id=":gneJ6_15" function="internal">
        <lane id=":gneJ6_15_0" index="0" speed="3.65" length="2.34" shape="177.02,185.81 178.33,186.41 178.85,187.14"/>
    </edge>
    <edge id=":gneJ6_18" function="internal">
        <lane id=":gneJ6_18_0" index="0" speed="8.51" length="8.78" shape="183.03,186.44 184.29,186.90 186.69,189.34 188.26,193.03"/>
    </edge>
    <edge id=":gneJ6_19" function="internal">
        <lane id=":gneJ6_19_0" index="0" speed="3.65" length="2.34" shape="178.85,187.14 178.58,187.99 177.53,188.97"/>
    </edge>
    <edge id=":gneJ7_0" function="internal">
        <lane id=":gneJ7_0_0" index="0" speed="8.84" length="16.18" shape="290.89,179.96 289.13,175.81 286.54,173.07 283.13,171.75 278.88,171.83"/>
    </edge>
    <edge id=":gneJ7_1" function="internal">
        <lane id=":gneJ7_1_0" index="0" speed="9.28" length="20.84" shape="290.89,179.96 290.15,174.21 291.49,169.78 294.91,166.65 300.41,164.84"/>
    </edge>
    <edge id=":gneJ7_2" function="internal">
        <lane id=":gneJ7_2_0" index="0" speed="3.65" length="4.67" shape="290.89,179.96 291.34,178.59 292.00,177.99 292.88,178.16 293.97,179.10"/>
    </edge>
    <edge id=":gneJ7_3" function="internal">
        <lane id=":gneJ7_3_0" index="0" speed="8.03" length="15.32" shape="300.97,167.99 296.93,169.32 294.42,171.62 293.43,174.88 293.97,179.10"/>
    </edge>
    <edge id=":gneJ7_4" function="internal">
        <lane id=":gneJ7_4_0" index="0" speed="13.89" length="22.42" shape="300.97,167.99 278.88,171.83"/>
    </edge>
    <edge id=":gneJ7_5" function="internal">
        <lane id=":gneJ7_5_0" index="0" speed="3.65" length="2.34" shape="300.97,167.99 299.65,167.41 299.12,166.69"/>
    </edge>
    <edge id=":gneJ7_9" function="internal">
        <lane id=":gneJ7_9_0" index="0" speed="3.65" length="2.34" shape="299.12,166.69 299.37,165.84 300.41,164.84"/>
    </edge>
    <edge id=":gneJ7_6" function="internal">
        <lane id=":gneJ7_6_0" index="0" speed="13.89" length="22.39" shape="278.35,168.68 300.41,164.84"/>
    </edge>
    <edge id=":gneJ7_7" function="internal">
        <lane id=":gneJ7_7_0" index="0" speed="10.00" length="7.05" shape="278.35,168.68 283.88,168.55 285.30,169.09"/>
    </edge>
    <edge id=":gneJ7_8" function="internal">
        <lane id=":gneJ7_8_0" index="0" speed="3.65" length="2.34" shape="278.35,168.68 279.67,169.26 280.19,169.98"/>
    </edge>
    <edge id=":gneJ7_10" function="internal">
        <lane id=":gneJ7_10_0" index="0" speed="10.00" length="13.92" shape="285.30,169.09 288.33,170.25 291.70,173.77 293.97,179.10"/>
    </edge>
    <edge id=":gneJ7_11" function="internal">
        <lane id=":gneJ7_11_0" index="0" speed="3.65" length="2.34" shape="280.19,169.98 279.93,170.84 278.88,171.83"/>
    </edge>
    <edge id=":gneJ8_0" function="internal">
        <lane id=":gneJ8_0_0" index="0" speed="8.79" length="16.29" shape="378.35,165.86 377.12,161.01 376.01,158.53 374.13,156.94 371.50,156.24 368.12,156.43"/>
    </edge>
    <edge id=":gneJ8_1" function="internal">
        <lane id=":gneJ8_1_0" index="0" speed="13.89" length="20.24" shape="378.35,165.86 377.12,161.01 375.68,156.35 374.24,152.93 372.91,149.99 371.81,146.75"/>
    </edge>
    <edge id=":gneJ8_2" function="internal">
        <lane id=":gneJ8_2_0" index="0" speed="9.18" length="10.32" shape="381.45,165.08 380.23,160.23 379.81,156.33 380.22,155.00"/>
    </edge>
    <edge id=":gneJ8_3" function="internal">
        <lane id=":gneJ8_3_0" index="0" speed="4.78" length="7.23" shape="381.45,165.08 380.23,160.23 380.71,158.87 381.30,158.36"/>
    </edge>
    <edge id=":gneJ8_16" function="internal">
        <lane id=":gneJ8_16_0" index="0" speed="9.18" length="8.95" shape="380.22,155.00 380.76,153.26 383.05,151.01 386.70,149.59"/>
    </edge>
    <edge id=":gneJ8_17" function="internal">
        <lane id=":gneJ8_17_0" index="0" speed="4.78" length="2.45" shape="381.30,158.36 381.39,158.29 382.26,158.48 383.33,159.45"/>
    </edge>
    <edge id=":gneJ8_4" function="internal">
        <lane id=":gneJ8_4_0" index="0" speed="6.47" length="9.03" shape="387.43,152.71 385.12,153.61 383.67,155.03 383.07,156.98 383.33,159.45"/>
    </edge>
    <edge id=":gneJ8_5" function="internal">
        <lane id=":gneJ8_5_0" index="0" speed="13.89" length="19.67" shape="387.43,152.71 368.12,156.43"/>
    </edge>
    <edge id=":gneJ8_6" function="internal">
        <lane id=":gneJ8_6_0" index="0" speed="8.98" length="17.82" shape="387.43,152.71 382.87,152.95 378.02,151.90 373.98,149.77 371.81,146.75"/>
    </edge>
    <edge id=":gneJ8_7" function="internal">
        <lane id=":gneJ8_7_0" index="0" speed="3.65" length="4.67" shape="387.43,152.71 386.08,152.20 385.51,151.51 385.72,150.64 386.70,149.59"/>
    </edge>
    <edge id=":gneJ8_8" function="internal">
        <lane id=":gneJ8_8_0" index="0" speed="7.04" length="10.47" shape="378.70,144.97 379.81,147.55 381.52,149.18 383.81,149.86 386.70,149.59"/>
    </edge>
    <edge id=":gneJ8_9" function="internal">
        <lane id=":gneJ8_9_0" index="0" speed="13.89" length="15.20" shape="378.70,144.97 383.33,159.45"/>
    </edge>
    <edge id=":gneJ8_10" function="internal">
        <lane id=":gneJ8_10_0" index="0" speed="7.99" length="5.97" shape="375.60,145.77 376.03,149.81 375.40,151.61"/>
    </edge>
    <edge id=":gneJ8_11" function="internal">
        <lane id=":gneJ8_11_0" index="0" speed="3.92" length="3.10" shape="375.60,145.77 375.02,147.44 374.20,148.16 373.96,148.11"/>
    </edge>
    <edge id=":gneJ8_18" function="internal">
        <lane id=":gneJ8_18_0" index="0" speed="7.99" length="9.21" shape="375.40,151.61 374.93,152.93 372.29,155.14 368.12,156.43"/>
    </edge>
    <edge id=":gneJ8_19" function="internal">
        <lane id=":gneJ8_19_0" index="0" speed="3.92" length="2.62" shape="373.96,148.11 373.12,147.93 371.81,146.75"/>
    </edge>
    <edge id=":gneJ8_12" function="internal">
        <lane id=":gneJ8_12_0" index="0" speed="6.33" length="9.04" shape="367.58,153.27 369.97,152.51 371.47,151.16 372.08,149.25 371.81,146.75"/>
    </edge>
    <edge id=":gneJ8_13" function="internal">
        <lane id=":gneJ8_13_0" index="0" speed="13.89" length="19.47" shape="367.58,153.27 386.70,149.59"/>
    </edge>
    <edge id=":gneJ8_14" function="internal">
        <lane id=":gneJ8_14_0" index="0" speed="9.19" length="17.87" shape="367.58,153.27 372.24,153.24 377.14,154.42 381.20,156.56 383.33,159.45"/>
    </edge>
    <edge id=":gneJ8_15" function="internal">
        <lane id=":gneJ8_15_0" index="0" speed="3.65" length="4.67" shape="367.58,153.27 368.90,153.86 369.43,154.58 369.17,155.44 368.12,156.43"/>
    </edge>
    <edge id=":gneJ9_0" function="internal">
        <lane id=":gneJ9_0_0" index="0" speed="9.42" length="19.07" shape="470.89,148.81 468.87,143.98 465.81,140.85 461.72,139.41 456.60,139.67"/>
    </edge>
    <edge id=":gneJ9_1" function="internal">
        <lane id=":gneJ9_1_0" index="0" speed="10.60" length="26.29" shape="470.89,148.81 469.81,141.07 471.13,135.05 474.85,130.76 480.97,128.19"/>
    </edge>
    <edge id=":gneJ9_2" function="internal">
        <lane id=":gneJ9_2_0" index="0" speed="3.65" length="4.67" shape="470.89,148.81 471.35,147.44 472.02,146.85 472.90,147.03 473.98,147.99"/>
    </edge>
    <edge id=":gneJ9_3" function="internal">
        <lane id=":gneJ9_3_0" index="0" speed="9.02" length="18.65" shape="482.33,134.02 477.56,135.91 474.58,138.87 473.38,142.90 473.98,147.99"/>
    </edge>
    <edge id=":gneJ9_4" function="internal">
        <lane id=":gneJ9_4_0" index="0" speed="13.89" length="26.34" shape="482.33,134.02 456.60,139.67"/>
    </edge>
    <edge id=":gneJ9_5" function="internal">
        <lane id=":gneJ9_5_0" index="0" speed="4.60" length="6.05" shape="482.33,134.02 479.80,133.07 478.73,131.79 479.12,130.16"/>
    </edge>
    <edge id=":gneJ9_9" function="internal">
        <lane id=":gneJ9_9_0" index="0" speed="4.60" length="2.70" shape="479.12,130.16 480.97,128.19"/>
    </edge>
    <edge id=":gneJ9_6" function="internal">
        <lane id=":gneJ9_6_0" index="0" speed="13.89" length="26.12" shape="455.43,133.66 480.97,128.19"/>
    </edge>
    <edge id=":gneJ9_7" function="internal">
        <lane id=":gneJ9_7_0" index="0" speed="10.46" length="7.01" shape="456.04,136.80 462.50,136.45 463.01,136.62"/>
    </edge>
    <edge id=":gneJ9_8" function="internal">
        <lane id=":gneJ9_8_0" index="0" speed="3.54" length="1.93" shape="456.04,136.80 457.25,137.31 457.63,137.80"/>
    </edge>
    <edge id=":gneJ9_10" function="internal">
        <lane id=":gneJ9_10_0" index="0" speed="10.46" length="16.77" shape="463.01,136.62 467.64,138.19 471.47,142.04 473.98,147.99"/>
    </edge>
    <edge id=":gneJ9_11" function="internal">
        <lane id=":gneJ9_11_0" index="0" speed="3.54" length="2.32" shape="457.63,137.80 457.75,137.96 457.53,138.74 456.60,139.67"/>
    </edge>

    <edge id="-C1" from="gneJ4" to="gneJ5" priority="-1">
        <lane id="-C1_0" index="0" speed="13.89" length="7.34" shape="73.28,212.00 78.95,207.34"/>
    </edge>
    <edge id="-C10" from="gneJ9" to="gneJ10" priority="-1" shape="471.02,132.15 512.90,122.38">
        <lane id="-C10_0" index="0" speed="13.89" length="29.14" shape="480.97,128.19 509.35,121.57"/>
    </edge>
    <edge id="-C2" from="gneJ5" to="gneJ14" priority="-1">
        <lane id="-C2_0" index="0" speed="13.89" length="13.14" shape="79.70,206.83 91.24,200.54"/>
    </edge>
    <edge id="-C3" from="gneJ14" to="gneJ31" priority="-1">
        <lane id="-C3_0" index="0" speed="13.89" length="19.49" shape="92.66,200.03 111.81,196.45"/>
    </edge>
    <edge id="-C4" from="gneJ31" to="gneJ6" priority="-1">
        <lane id="-C4_0" index="0" speed="13.89" length="51.69" shape="125.98,193.99 177.02,185.81"/>
    </edge>
    <edge id="-C5" from="gneJ6" to="gneJ7" priority="-1">
        <lane id="-C5_0" index="0" speed="13.89" length="87.67" shape="191.91,183.35 278.35,168.68"/>
    </edge>
    <edge id="-C6" from="gneJ7" to="gneJ30" priority="-1">
        <lane id="-C6_0" index="0" speed="13.89" length="18.95" shape="300.41,164.84 319.07,161.52"/>
    </edge>
    <edge id="-C7" from="gneJ30" to="gneJ8" priority="-1">
        <lane id="-C7_0" index="0" speed="13.89" length="34.77" shape="333.30,159.05 367.58,153.27"/>
    </edge>
    <edge id="-C8" from="gneJ8" to="gneJ29" priority="-1">
        <lane id="-C8_0" index="0" speed="13.89" length="41.04" shape="386.70,149.59 426.67,140.26"/>
    </edge>
    <edge id="-C9" from="gneJ29" to="gneJ9" priority="-1" shape="433.25,142.94 464.67,136.73">
        <lane id="-C9_0" index="0" speed="13.89" length="21.49" shape="434.34,137.83 455.43,133.66"/>
        <lane id="-C9_1" index="1" speed="13.89" length="21.49" shape="434.97,140.97 456.04,136.80"/>
    </edge>
    <edge id="-N1" from="gneJ4" to="gneJ19" priority="-1">
        <lane id="-N1_0" index="0" speed="13.89" length="109.90" shape="74.51,227.68 150.31,307.26"/>
    </edge>
    <edge id="-N2" from="gneJ6" to="gneJ13" priority="-1">
        <lane id="-N2_0" index="0" speed="13.89" length="137.99" shape="188.26,193.03 224.03,326.31"/>
    </edge>
    <edge id="-N3" from="gneJ7" to="gneJ11" priority="-1">
        <lane id="-N3_0" index="0" speed="13.89" length="121.97" shape="293.97,179.10 326.61,296.62"/>
    </edge>
    <edge id="-N4" from="gneJ17" to="gneJ28" priority="-1" shape="395.12,206.21 414.80,287.39">
        <lane id="-N4_0" index="0" speed="13.89" length="84.96" shape="397.23,208.14 417.25,290.70"/>
    </edge>
    <edge id="-N5" from="gneJ9" to="gneJ20" priority="-1">
        <lane id="-N5_0" index="0" speed="13.89" length="69.59" shape="473.98,147.99 491.81,215.26"/>
    </edge>
    <edge id="-S1" from="gneJ4" to="gneJ18" priority="-1">
        <lane id="-S1_0" index="0" speed="13.89" length="84.63" shape="56.77,213.58 -1.17,151.89"/>
    </edge>
    <edge id="-S2" from="gneJ31" to="gneJ25" priority="-1">
        <lane id="-S2_0" index="0" speed="13.89" length="67.03" shape="115.97,189.87 98.78,125.08"/>
    </edge>
    <edge id="-S3" from="gneJ6" to="gneJ15" priority="-1">
        <lane id="-S3_0" index="0" speed="13.89" length="61.00" shape="181.17,179.31 164.64,120.59"/>
    </edge>
    <edge id="-S4" from="gneJ30" to="gneJ23" priority="-1">
        <lane id="-S4_0" index="0" speed="13.89" length="42.82" shape="323.07,154.95 310.36,114.05"/>
    </edge>
    <edge id="-S5" from="gneJ16" to="gneJ27" priority="-1" shape="364.62,105.89 335.76,3.99">
        <lane id="-S5_0" index="0" speed="13.89" length="108.13" width="5.00" shape="361.68,104.69 332.22,0.66"/>
    </edge>
    <edge id="-S6" from="gneJ8" to="gneJ16" priority="-1" shape="374.40,150.38 364.00,110.28">
        <lane id="-S6_0" index="0" speed="13.89" length="35.30" shape="371.81,146.75 362.95,112.59"/>
    </edge>
    <edge id="-gneE17" from="gneJ17" to="gneJ8" priority="-1">
        <lane id="-gneE17_0" index="0" speed="13.89" length="37.46" endOffset="5.00" shape="387.52,202.18 378.35,165.86"/>
        <lane id="-gneE17_1" index="1" speed="13.89" length="37.46" endOffset="5.00" shape="390.62,201.40 381.45,165.08"/>
    </edge>
    <edge id="C1" from="gneJ5" to="gneJ4" priority="-1">
        <lane id="C1_0" index="0" speed="13.89" length="7.34" shape="80.98,209.81 75.31,214.47"/>
    </edge>
    <edge id="C10" from="gneJ10" to="gneJ9" priority="-1" shape="506.76,126.52 470.55,135.20">
        <lane id="C10_0" index="0" speed="13.89" length="29.17" shape="510.69,127.22 482.33,134.02"/>
    </edge>
    <edge id="C2" from="gneJ14" to="gneJ5" priority="-1">
        <lane id="C2_0" index="0" speed="13.89" length="13.14" shape="92.77,203.35 81.23,209.64"/>
    </edge>
    <edge id="C3" from="gneJ31" to="gneJ14" priority="-1">
        <lane id="C3_0" index="0" speed="13.89" length="19.49" shape="112.40,199.60 93.24,203.18"/>
    </edge>
    <edge id="C4" from="gneJ6" to="gneJ31" priority="-1">