<additional>
    <tlLogic id="C" programID="0" offset="0.00"/>
    <tlLogic id="D" programID="1" offset="51.68"/>
</additional>
