<?xml version="1.0" encoding="UTF-8"?>

<!-- generated on Fri 15 Oct 2021 03:08:28 PM CEST by Eclipse SUMO netedit Version v1_7_0+1095-7111e26d53
<configuration xmlns:xsi="http://www.w3.org/2001/XMLSchema-instance" xsi:noNamespaceSchemaLocation="http://sumo.dlr.de/xsd/netconvertConfiguration.xsd">

    <input>
        <sumo-net-file value="network.net.xml"/>
    </input>

    <output>
        <output-file value="network.net.xml"/>
    </output>

    <processing>
        <geometry.min-radius.fix.railways value="false"/>
        <geometry.max-grade.fix value="false"/>
        <offset.disable-normalization value="true"/>
        <lefthand value="false"/>
    </processing>

    <junctions>
        <no-turnarounds value="true"/>
        <junctions.corner-detail value="5"/>
        <junctions.limit-turn-speed value="5.5"/>
        <rectangular-lane-cut value="false"/>
    </junctions>

    <pedestrian>
        <walkingareas value="false"/>
    </pedestrian>

    <netedit>
        <route-files value="/home/msa/Documents/SUMO/SUMO_AAU/course2021/part2_intersections/exercise1/demands.rou.xml"/>
    </netedit>

    <report>
        <aggregate-warnings value="5"/>
    </report>

</configuration>
-->

<routes xmlns:xsi="http://www.w3.org/2001/XMLSchema-instance" xsi:noNamespaceSchemaLocation="http://sumo.dlr.de/xsd/routes_file.xsd">
    <route edges="fromA1 fromA11 toA22 toA2" id="A1forward"/>
    <route edges="fromA1 fromA11 toB1" id="A1left"/>
    <route edges="fromA1 fromA11 toB22 toB2" id="A1right"/>
    <route edges="fromA2 fromA22 toA11 toA1" id="A2forward"/>
    <route edges="fromA2 fromA22 toB22 toB2" id="A2left"/>
    <route edges="fromA2 fromA22 toB1" id="A2right"/>
    <route edges="fromB1 toB22 toB2" id="B1forward"/>
    <route edges="fromB1 toA22 toA2" id="B1left"/>
    <route edges="fromB1 toA11 toA1" id="B1right"/>
    <route edges="fromB2 fromB22 toB1" id="B2forward"/>
    <route edges="fromB2 fromB22 toA11 toA1" id="B2left"/>
    <route edges="fromB2 fromB22 toA22 toA2" id="B2right"/>
</routes>
