<?xml version="1.0" encoding="UTF-8"?>

<!-- generated on 2021-10-20 11:23:10 by Eclipse SUMO netedit Version 1.10.0
<configuration xmlns:xsi="http://www.w3.org/2001/XMLSchema-instance" xsi:noNamespaceSchemaLocation="http://sumo.dlr.de/xsd/netconvertConfiguration.xsd">

    <input>
        <sumo-net-file value="network.net.xml"/>
    </input>

    <output>
        <output-file value="/home/msa/Documents/SUMO/SUMO_AAU/course2021/part2_intersections/exercise1/extended_network.net.xml"/>
    </output>

    <processing>
        <geometry.min-radius.fix.railways value="false"/>
        <geometry.max-grade.fix value="false"/>
        <offset.disable-normalization value="true"/>
        <lefthand value="false"/>
    </processing>

    <junctions>
        <no-turnarounds value="true"/>
        <junctions.corner-detail value="5"/>
        <junctions.limit-turn-speed value="5.5"/>
        <rectangular-lane-cut value="false"/>
    </junctions>

    <pedestrian>
        <walkingareas value="false"/>
    </pedestrian>

    <report>
        <aggregate-warnings value="5"/>
    </report>

</configuration>
-->

<net version="1.9" junctionCornerDetail="5" limitTurnSpeed="5.50" xmlns:xsi="http://www.w3.org/2001/XMLSchema-instance" xsi:noNamespaceSchemaLocation="http://sumo.dlr.de/xsd/net_file.xsd">

    <location netOffset="0.00,0.00" convBoundary="-138.79,-17.25,119.79,118.57" origBoundary="-10000000000.00,-10000000000.00,10000000000.00,10000000000.00" projParameter="!"/>

    <edge id=":A11_0" function="internal">
        <lane id=":A11_0_0" index="0" speed="13.89" length="1.69" width="3.50" shape="98.78,61.02 98.50,60.95 98.32,60.86 98.14,60.78 97.86,60.76"/>
        <lane id=":A11_0_1" index="1" speed="13.89" length="1.69" width="3.50" shape="99.44,57.58 98.94,57.47 98.61,57.36 98.27,57.28 97.77,57.26"/>
        <lane id=":A11_0_2" index="2" speed="13.89" length="1.69" width="3.00" shape="100.05,54.38 99.35,54.25 98.87,54.12 98.40,54.03 97.69,54.01"/>
    </edge>
    <edge id=":A11_3" function="internal">
        <lane id=":A11_3_0" index="0" speed="13.89" length="3.66" width="6.00" shape="97.54,48.35 98.63,48.33 99.38,48.27 100.12,48.27 101.19,48.42"/>
    </edge>
    <edge id=":A2_0" function="internal">
        <lane id=":A2_0_0" index="0" speed="13.89" length="9.04" shape="-27.63,60.72 -30.26,61.32 -31.91,62.46 -33.57,63.56 -36.20,64.04"/>
        <lane id=":A2_0_1" index="1" speed="13.89" length="9.04" shape="-27.63,60.72 -36.17,60.84"/>
        <lane id=":A2_0_2" index="2" speed="13.89" length="9.04" shape="-27.63,60.72 -30.23,60.32 -31.89,59.26 -33.54,58.16 -36.14,57.64"/>
    </edge>
    <edge id=":A2_3" function="internal">
        <lane id=":A2_3_0" index="0" speed="13.89" length="8.34" shape="-36.08,50.18 -27.77,49.94"/>
        <lane id=":A2_3_1" index="1" speed="13.89" length="8.34" shape="-36.11,53.38 -27.73,53.14"/>
    </edge>
    <edge id=":A22_0" function="internal">
        <lane id=":A22_0_0" index="0" speed="13.89" length="7.80" shape="16.40,59.42 14.09,59.25 12.51,59.16 10.92,59.17 8.61,59.25"/>
    </edge>
    <edge id=":A22_1" function="internal">
        <lane id=":A22_1_0" index="0" speed="13.89" length="8.27" shape="8.22,49.49 16.26,49.44"/>
        <lane id=":A22_1_1" index="1" speed="13.89" length="8.27" shape="8.34,52.68 16.31,52.64"/>
        <lane id=":A22_1_2" index="2" speed="13.89" length="8.27" shape="8.34,52.68 10.81,53.16 12.35,54.26 13.89,55.37 16.35,55.84"/>
    </edge>
    <edge id=":A33_0" function="internal">
        <lane id=":A33_0_0" index="0" speed="13.89" length="8.00" shape="-95.46,57.45 -103.46,57.47"/>
    </edge>
    <edge id=":A33_1" function="internal">
        <lane id=":A33_1_0" index="0" speed="13.89" length="8.29" shape="-103.48,47.75 -95.48,47.85"/>
        <lane id=":A33_1_1" index="1" speed="13.89" length="8.29" shape="-103.47,50.95 -95.47,51.05"/>
        <lane id=":A33_1_2" index="2" speed="13.89" length="8.29" shape="-103.47,50.95 -101.00,51.46 -99.47,52.60 -97.93,53.74 -95.46,54.25"/>
    </edge>
    <edge id=":B22_0" function="internal">
        <lane id=":B22_0_0" index="0" speed="13.89" length="12.82" shape="52.56,92.00 52.02,95.28 50.76,97.99 49.22,100.65 47.82,103.79"/>
    </edge>
    <edge id=":B22_1" function="internal">
        <lane id=":B22_1_0" index="0" speed="13.89" length="10.96" shape="41.75,101.75 42.63,98.94 43.02,96.96 43.13,94.93 43.12,91.98"/>
        <lane id=":B22_1_1" index="1" speed="13.89" length="10.96" shape="44.79,102.77 45.76,99.67 46.20,97.48 46.32,95.24 46.32,91.99"/>
        <lane id=":B22_1_2" index="2" speed="13.89" length="10.96" shape="44.79,102.77 46.32,99.56 47.85,97.50 49.04,95.37 49.52,91.99"/>
    </edge>
    <edge id=":C_0" function="internal">
        <lane id=":C_0_0" index="0" speed="7.90" length="12.99" shape="43.15,69.73 42.69,66.09 41.28,63.41 38.93,61.69 35.64,60.92"/>
    </edge>
    <edge id=":C_1" function="internal">
        <lane id=":C_1_0" index="0" speed="13.89" length="29.43" width="4.00" shape="46.35,69.77 46.93,40.34"/>
    </edge>
    <edge id=":C_2" function="internal">
        <lane id=":C_2_0" index="0" speed="11.32" length="12.96" width="7.00" shape="49.55,69.81 50.47,59.98 51.59,57.10"/>
    </edge>
    <edge id=":C_12" function="internal">
        <lane id=":C_12_0" index="0" speed="11.32" length="16.97" width="7.00" shape="51.59,57.10 53.19,53.01 57.72,48.89 64.05,47.62"/>
    </edge>
    <edge id=":C_3" function="internal">
        <lane id=":C_3_0" index="0" speed="8.44" length="15.35" shape="63.74,61.64 59.00,62.25 55.61,63.83 53.55,66.36 52.83,69.85"/>
    </edge>
    <edge id=":C_4" function="internal">
        <lane id=":C_4_0" index="0" speed="13.89" length="28.34" shape="63.82,58.13 54.14,58.78 46.29,59.81 40.15,60.69 35.64,60.92"/>
    </edge>
    <edge id=":C_5" function="internal">
        <lane id=":C_5_0" index="0" speed="10.54" length="9.42" width="4.00" shape="63.88,54.88 56.62,54.13 54.73,53.17"/>
    </edge>
    <edge id=":C_13" function="internal">
        <lane id=":C_13_0" index="0" speed="10.54" length="16.02" width="4.00" shape="54.73,53.17 51.37,51.46 48.14,46.86 46.93,40.34"/>
    </edge>
    <edge id=":C_6" function="internal">
        <lane id=":C_6_0" index="0" speed="7.42" length="11.52" width="7.00" shape="57.18,40.06 57.68,43.31 59.00,45.66 61.12,47.09 64.05,47.62"/>
    </edge>
    <edge id=":C_7" function="internal">
        <lane id=":C_7_0" index="0" speed="13.89" length="29.70" shape="53.68,40.16 52.83,69.85"/>
    </edge>
    <edge id=":C_8" function="internal">
        <lane id=":C_8_0" index="0" speed="11.01" length="14.10" shape="50.43,40.25 50.09,49.57 48.66,54.12"/>
    </edge>
    <edge id=":C_14" function="internal">
        <lane id=":C_14_0" index="0" speed="11.01" length="16.03" shape="48.66,54.12 47.99,56.25 43.42,60.09 35.64,60.92"/>
    </edge>
    <edge id=":C_9" function="internal">
        <lane id=":C_9_0" index="0" speed="8.30" length="15.49" width="4.00" shape="36.55,49.13 41.18,48.51 44.45,46.85 46.37,44.12 46.93,40.34"/>
    </edge>
    <edge id=":C_10" function="internal">
        <lane id=":C_10_0" index="0" speed="13.89" length="28.20" width="7.00" shape="36.30,52.33 45.87,51.49 53.58,49.85 59.58,48.28 64.05,47.62"/>
    </edge>
    <edge id=":C_11" function="internal">
        <lane id=":C_11_0" index="0" speed="10.41" length="11.39" shape="36.05,55.53 43.46,56.33 46.98,58.10"/>
    </edge>
    <edge id=":C_15" function="internal">
        <lane id=":C_15_0" index="0" speed="10.41" length="13.88" shape="46.98,58.10 48.73,58.98 51.85,63.49 52.83,69.85"/>
    </edge>
    <edge id=":D_0" function="internal">
        <lane id=":D_0_0" index="0" speed="7.53" length="12.28" shape="-54.72,63.88 -58.85,64.20 -61.81,65.22 -63.62,66.94 -64.26,69.37"/>
    </edge>
    <edge id=":D_1" function="internal">
        <lane id=":D_1_0" index="0" speed="13.89" length="21.49" shape="-54.81,60.68 -61.94,60.13 -67.56,59.01 -72.09,57.91 -76.01,57.41"/>
    </edge>
    <edge id=":D_2" function="internal">
        <lane id=":D_2_0" index="0" speed="9.92" length="8.10" shape="-54.90,57.48 -60.24,56.49 -62.37,54.88"/>
    </edge>
    <edge id=":D_13" function="internal">
        <lane id=":D_13_0" index="0" speed="9.92" length="14.10" shape="-62.37,54.88 -64.07,53.61 -66.36,48.84 -67.12,42.20"/>
    </edge>
    <edge id=":D_3" function="internal">
        <lane id=":D_3_0" index="0" speed="7.21" length="11.55" shape="-60.72,42.19 -60.37,45.97 -59.31,48.65 -57.55,50.23 -55.08,50.70"/>
    </edge>
    <edge id=":D_4" function="internal">
        <lane id=":D_4_0" index="0" speed="13.89" length="27.43" shape="-60.72,42.19 -61.26,49.96 -62.45,57.66 -63.66,64.42 -64.26,69.37"/>
    </edge>
    <edge id=":D_5" function="internal">
        <lane id=":D_5_0" index="0" speed="9.86" length="12.23" shape="-63.92,42.20 -64.68,48.84 -66.94,53.60 -67.16,53.76"/>
    </edge>
    <edge id=":D_14" function="internal">
        <lane id=":D_14_0" index="0" speed="9.86" length="9.83" shape="-67.16,53.76 -70.72,56.45 -76.01,57.41"/>
    </edge>
    <edge id=":D_6" function="internal">
        <lane id=":D_6_0" index="0" speed="7.36" length="11.82" shape="-76.03,47.81 -72.13,47.45 -69.35,46.40 -67.68,44.65 -67.12,42.20"/>
    </edge>
    <edge id=":D_7" function="internal">
        <lane id=":D_7_0" index="0" speed="13.89" length="21.26" shape="-76.03,47.81 -69.70,48.29 -65.34,49.35 -61.08,50.36 -55.08,50.70"/>
        <lane id=":D_7_1" index="1" speed="13.89" length="21.26" shape="-76.02,51.01 -69.66,51.49 -65.28,52.55 -61.00,53.56 -54.99,53.90"/>
    </edge>
    <edge id=":D_9" function="internal">
        <lane id=":D_9_0" index="0" speed="9.73" length="8.85" shape="-76.01,54.21 -70.73,55.15 -67.96,57.26"/>
    </edge>
    <edge id=":D_15" function="internal">
        <lane id=":D_15_0" index="0" speed="9.73" length="13.07" shape="-67.96,57.26 -67.01,57.99 -64.85,62.73 -64.26,69.37"/>
    </edge>
    <edge id=":D_10" function="internal">
        <lane id=":D_10_0" index="0" speed="7.96" length="14.34" shape="-70.66,69.21 -70.88,64.04 -71.85,60.36 -73.56,58.14 -76.01,57.41"/>
    </edge>
    <edge id=":D_11" function="internal">
        <lane id=":D_11_0" index="0" speed="13.89" length="27.26" shape="-70.66,69.21 -70.00,61.48 -68.80,53.83 -67.64,47.12 -67.12,42.20"/>
    </edge>
    <edge id=":D_12" function="internal">
        <lane id=":D_12_0" index="0" speed="10.09" length="12.01" shape="-67.46,69.29 -66.54,62.68 -64.15,57.91"/>
    </edge>
    <edge id=":D_16" function="internal">
        <lane id=":D_16_0" index="0" speed="10.09" length="10.26" shape="-64.15,57.91 -60.31,54.99 -54.99,53.90"/>
    </edge>
    <edge id=":D11_0" function="internal">
        <lane id=":D11_0_0" index="0" speed="13.89" length="8.07" shape="-67.13,23.30 -67.09,15.23"/>
    </edge>
    <edge id=":D11_1" function="internal">
        <lane id=":D11_1_0" index="0" speed="13.89" length="8.40" shape="-60.74,15.30 -60.73,23.30"/>
        <lane id=":D11_1_1" index="1" speed="13.89" length="8.40" shape="-60.74,15.30 -61.25,17.76 -62.34,19.30 -63.43,20.84 -63.93,23.30"/>
    </edge>
    <edge id=":D22_0" function="internal">
        <lane id=":D22_0_0" index="0" speed="13.89" length="8.12" shape="-64.65,84.50 -64.94,92.62"/>
    </edge>
    <edge id=":D22_1" function="internal">
        <lane id=":D22_1_0" index="0" speed="13.89" length="8.43" shape="-71.42,92.32 -71.05,84.34"/>
        <lane id=":D22_1_1" index="1" speed="13.89" length="8.43" shape="-71.42,92.32 -70.81,89.87 -69.62,88.37 -68.43,86.87 -67.85,84.42"/>
    </edge>

    <edge id="A2toD" from="A2" to="D" priority="-1">
        <lane id="A2toD_0" index="0" speed="13.89" length="18.64" shape="-36.20,64.04 -54.72,63.88"/>
        <lane id="A2toD_1" index="1" speed="13.89" length="18.64" shape="-36.17,60.84 -54.81,60.68"/>
        <lane id="A2toD_2" index="2" speed="13.89" length="18.64" shape="-36.14,57.64 -54.90,57.48"/>
    </edge>
    <edge id="DtoA2" from="D" to="A2" priority="-1" shape="-65.52,55.79 -33.39,54.91">
        <lane id="DtoA2_0" index="0" speed="13.89" length="18.95" shape="-55.08,50.70 -36.08,50.18"/>
        <lane id="DtoA2_1" index="1" speed="13.89" length="18.95" shape="-54.99,53.90 -36.11,53.38"/>
    </edge>
    <edge id="fromA1" from="A1" to="A11" priority="-1">
        <lane id="fromA1_0" index="0" speed="13.89" length="19.87" width="3.50" shape="118.58,63.96 98.78,61.02"/>
        <lane id="fromA1_1" index="1" speed="13.89" length="19.87" width="3.50" shape="119.09,60.50 99.44,57.58"/>
        <lane id="fromA1_2" index="2" speed="13.89" length="19.87" width="3.00" shape="119.57,57.28 100.05,54.38"/>
    </edge>
    <edge id="fromA11" from="A11" to="C" priority="-1" shape="97.65,52.51 63.84,53.38">
        <lane id="fromA11_0" index="0" speed="13.89" length="33.97" width="3.50" shape="97.86,60.76 63.74,61.64"/>
        <lane id="fromA11_1" index="1" speed="13.89" length="33.97" width="3.50" shape="97.77,57.26 63.82,58.13"/>
        <lane id="fromA11_2" index="2" speed="13.89" length="33.97" width="3.00" shape="97.69,54.01 63.88,54.88"/>
    </edge>
    <edge id="fromA2" from="A2" to="A22" priority="-1" shape="-32.08,54.80 5.51,54.32">
        <lane id="fromA2_0" index="0" speed="13.89" length="36.03" shape="-27.77,49.94 8.22,49.49"/>
        <lane id="fromA2_1" index="1" speed="13.89" length="36.03" shape="-27.73,53.14 8.34,52.68"/>
    </edge>
    <edge id="fromA22" from="A22" to="C" priority="-1" shape="12.33,57.50 35.65,57.14">
        <lane id="fromA22_0" index="0" speed="13.89" length="20.00" shape="16.26,49.44 36.55,49.13"/>
        <lane id="fromA22_1" index="1" speed="13.89" length="20.00" shape="16.31,52.64 36.30,52.33"/>
        <lane id="fromA22_2" index="2" speed="13.89" length="20.00" shape="16.35,55.84 36.05,55.53"/>
    </edge>
    <edge id="fromA3" from="A3" to="A33" priority="-1" shape="-138.79,52.59 -98.84,52.54">
        <lane id="fromA3_0" index="0" speed="13.89" length="33.87" shape="-137.34,47.79 -103.48,47.75"/>
        <lane id="fromA3_1" index="1" speed="13.89" length="33.87" shape="-137.34,50.99 -103.47,50.95"/>
    </edge>
    <edge id="fromA33" from="A33" to="D" priority="-1">
        <lane id="fromA33_0" index="0" speed="13.89" length="19.45" shape="-95.48,47.85 -76.03,47.81"/>
        <lane id="fromA33_1" index="1" speed="13.89" length="19.45" shape="-95.47,51.05 -76.02,51.01"/>
        <lane id="fromA33_2" index="2" speed="13.89" length="19.45" shape="-95.46,54.25 -76.01,54.21"/>
    </edge>
    <edge id="fromB1" from="B1" to="C" priority="-1" shape="47.78,-1.19 49.01,43.22">
        <lane id="fromB1_0" index="0" speed="13.89" length="41.49" width="3.50" shape="56.03,-1.42 57.18,40.06"/>
        <lane id="fromB1_1" index="1" speed="13.89" length="41.49" width="3.50" shape="52.53,-1.32 53.68,40.16"/>
        <lane id="fromB1_2" index="2" speed="13.89" length="41.49" width="3.00" shape="49.28,-1.23 50.43,40.25"/>
    </edge>
    <edge id="fromB2" from="B2" to="B22" priority="-1">
        <lane id="fromB2_0" index="0" speed="13.89" length="2.39" shape="40.99,104.01 41.75,101.75"/>
        <lane id="fromB2_1" index="1" speed="13.89" length="2.39" shape="44.02,105.03 44.79,102.77"/>
    </edge>
    <edge id="fromB22" from="B22" to="C" priority="-1" shape="51.13,85.31 51.15,70.27">
        <lane id="fromB22_0" index="0" speed="13.89" length="22.22" shape="43.12,91.98 43.15,69.73"/>
        <lane id="fromB22_1" index="1" speed="13.89" length="22.22" shape="46.32,91.99 46.35,69.77"/>
        <lane id="fromB22_2" index="2" speed="13.89" length="22.22" shape="49.52,91.99 49.55,69.81"/>
    </edge>
    <edge id="fromD1" from="D1" to="D11" priority="-1" shape="-62.23,-13.25 -62.35,16.69">
        <lane id="fromD1_0" index="0" speed="13.89" length="32.54" shape="-60.61,-17.24 -60.74,15.30"/>
    </edge>
    <edge id="fromD11" from="D11" to="D" priority="-1">
        <lane id="fromD11_0" index="0" speed="13.89" length="18.90" shape="-60.73,23.30 -60.72,42.19"/>
        <lane id="fromD11_1" index="1" speed="13.89" length="18.90" shape="-63.93,23.30 -63.92,42.20"/>
    </edge>
    <edge id="fromD2" from="D2" to="D22" priority="-1" shape="-70.62,116.56 -69.78,91.26">
        <lane id="fromD2_0" index="0" speed="13.89" length="26.11" shape="-72.28,118.42 -71.42,92.32"/>
    </edge>
    <edge id="fromD22" from="D22" to="D" priority="-1">
        <lane id="fromD22_0" index="0" speed="13.89" length="15.13" shape="-71.05,84.34 -70.66,69.21"/>
        <lane id="fromD22_1" index="1" speed="13.89" length="15.13" shape="-67.85,84.42 -67.46,69.29"/>
    </edge>
    <edge id="toA1" from="A11" to="A1" priority="-1" shape="100.45,51.33 117.39,54.58">
        <lane id="toA1_0" index="0" speed="13.89" length="19.65" width="6.00" shape="101.19,48.42 120.50,52.12"/>
    </edge>
    <edge id="toA11" from="C" to="A11" priority="-1" shape="63.97,51.12 95.05,51.80">
        <lane id="toA11_0" index="0" speed="13.89" length="33.50" width="7.00" shape="64.05,47.62 97.54,48.35"/>
    </edge>
    <edge id="toA2" from="A22" to="A2" priority="-1" shape="12.33,57.50 -30.89,59.25">
        <lane id="toA2_0" index="0" speed="13.89" length="36.27" shape="8.61,59.25 -27.63,60.72"/>
    </edge>
    <edge id="toA22" from="C" to="A22" priority="-1" shape="35.76,59.32 12.33,57.50">
        <lane id="toA22_0" index="0" speed="13.89" length="19.29" shape="35.64,60.92 16.40,59.42"/>
    </edge>
    <edge id="toA3" from="A33" to="A3" priority="-1">
        <lane id="toA3_0" index="0" speed="13.89" length="33.87" shape="-103.46,57.47 -137.33,57.54"/>
    </edge>
    <edge id="toA33" from="D" to="A33" priority="-1">
        <lane id="toA33_0" index="0" speed="13.89" length="19.45" shape="-76.01,57.41 -95.46,57.45"/>
    </edge>
    <edge id="toB1" from="C" to="B1" priority="-1" shape="49.01,43.30 47.78,-1.19">
        <lane id="toB1_0" index="0" speed="13.89" length="41.49" width="4.00" shape="46.93,40.34 45.78,-1.13"/>
    </edge>
    <edge id="toB2" from="B22" to="B2" priority="-1">
        <lane id="toB2_0" index="0" speed="13.89" length="2.39" shape="47.82,103.79 47.06,106.05"/>
    </edge>
    <edge id="toB22" from="C" to="B22" priority="-1" shape="51.23,69.83 50.99,89.36">
        <lane id="toB22_0" index="0" speed="13.89" length="22.15" shape="52.83,69.85 52.56,92.00"/>
    </edge>
    <edge id="toD1" from="D11" to="D1" priority="-1" shape="-65.53,19.29 -65.17,-13.41">
        <lane id="toD1_0" index="0" speed="13.89" length="32.53" shape="-67.09,15.23 -66.73,-17.30"/>
    </edge>
    <edge id="toD11" from="D" to="D11" priority="-1">
        <lane id="toD11_0" index="0" speed="13.89" length="18.90" shape="-67.12,42.20 -67.13,23.30"/>
    </edge>
    <edge id="toD2" from="D22" to="D2" priority="-1">
        <lane id="toD2_0" index="0" speed="13.89" length="26.05" shape="-64.94,92.62 -66.12,118.64"/>
    </edge>
    <edge id="toD22" from="D" to="D22" priority="-1">
        <lane id="toD22_0" index="0" speed="13.89" length="15.13" shape="-64.26,69.37 -64.65,84.50"/>
    </edge>

    <tlLogic id="C" type="static" programID="0" offset="0">
        <phase duration="33" state="rrrGGgrrrGGg"/>
        <phase duration="3"  state="rrryygrrryyg"/>
        <phase duration="6"  state="rrrrrGrrrrrG"/>
        <phase duration="3"  state="rrrrryrrrrry"/>
        <phase duration="33" state="GGgrrrGGgrrr"/>
        <phase duration="3"  state="yygrrryygrrr"/>
        <phase duration="6"  state="rrGrrrrrGrrr"/>
        <phase duration="3"  state="rryrrrrryrrr"/>
    </tlLogic>
    <tlLogic id="D" type="static" programID="0" offset="0">
        <phase duration="33" state="GGgrrrGGGgrrr"/>
        <phase duration="3"  state="yygrrryyygrrr"/>
        <phase duration="6"  state="rrGrrrrrrGrrr"/>
        <phase duration="3"  state="rryrrrrrryrrr"/>
        <phase duration="33" state="rrrGGgrrrrGGg"/>
        <phase duration="3"  state="rrryygrrrryyg"/>
        <phase duration="6"  state="rrrrrGrrrrrrG"/>
        <phase duration="3"  state="rrrrryrrrrrry"/>
    </tlLogic>
    <tlLogic id="D" type="static" programID="1" offset="0">
        <phase duration="33" state="GGgrrrGGGgrrr"/>
        <phase duration="3"  state="yygrrryyygrrr"/>
        <phase duration="6"  state="rrGrrrrrrGrrr"/>
        <phase duration="3"  state="rryrrrrrryrrr"/>
        <phase duration="33" state="rrrGGgrrrrGGg"/>
        <phase duration="3"  state="rrryygrrrryyg"/>
        <phase duration="6"  state="rrrrrGrrrrrrG"/>
        <phase duration="3"  state="rrrrryrrrrrry"/>
    </tlLogic>

    <junction id="A1" type="dead_end" x="119.79" y="55.80" incLanes="toA1_0" intLanes="" shape="119.79,55.80 118.32,65.69 121.06,49.17"/>
    <junction id="A11" type="priority" x="97.65" y="52.51" incLanes="fromA1_0 fromA1_1 fromA1_2 toA11_0" intLanes=":A11_0_0 :A11_0_1 :A11_0_2 :A11_3_0" shape="98.45,62.74 101.76,45.47 100.18,45.14 99.62,45.03 99.06,44.94 98.38,44.88 97.45,44.85 97.91,62.51 98.11,62.55 98.18,62.60 98.24,62.66 98.33,62.71">
        <request index="0" response="0000" foes="0000" cont="0"/>
        <request index="1" response="0000" foes="0000" cont="0"/>
        <request index="2" response="0000" foes="0000" cont="0"/>
        <request index="3" response="0000" foes="0000" cont="0"/>
    </junction>
    <junction id="A2" type="priority" x="-31.60" y="56.08" incLanes="toA2_0 DtoA2_0 DtoA2_1" intLanes=":A2_0_0 :A2_0_1 :A2_0_2 :A2_3_0 :A2_3_1" shape="-27.61,62.32 -27.79,48.34 -36.06,48.58 -36.21,65.64 -32.96,64.84 -31.91,64.07 -30.87,63.27 -29.53,62.63">
        <request index="0" response="00000" foes="00000" cont="0"/>
        <request index="1" response="00000" foes="00000" cont="0"/>
        <request index="2" response="00000" foes="00000" cont="0"/>
        <request index="3" response="00000" foes="00000" cont="0"/>
        <request index="4" response="00000" foes="00000" cont="0"/>
    </junction>
    <junction id="A22" type="priority" x="12.33" y="57.50" incLanes="toA22_0 fromA2_0 fromA2_1" intLanes=":A22_0_0 :A22_1_0 :A22_1_1 :A22_1_2" shape="16.43,61.03 16.24,47.84 8.15,47.89 8.67,60.85 11.55,60.76 12.55,60.77 13.56,60.81 14.78,60.90">
        <request index="0" response="0000" foes="0000" cont="0"/>
        <request index="1" response="0000" foes="0000" cont="0"/>
        <request index="2" response="0000" foes="0000" cont="0"/>
        <request index="3" response="0000" foes="0000" cont="0"/>
    </junction>
    <junction id="A3" type="dead_end" x="-137.33" y="55.94" incLanes="toA3_0" intLanes="" shape="-137.35,46.19 -137.33,59.14 -137.33,55.94"/>
    <junction id="A33" type="priority" x="-99.46" y="55.86" incLanes="toA33_0 fromA3_0 fromA3_1" intLanes=":A33_0_0 :A33_1_0 :A33_1_1 :A33_1_2" shape="-95.45,59.05 -95.48,46.25 -103.48,46.15 -103.45,59.07">
        <request index="0" response="0000" foes="0000" cont="0"/>
        <request index="1" response="0000" foes="0000" cont="0"/>
        <request index="2" response="0000" foes="0000" cont="0"/>
        <request index="3" response="0000" foes="0000" cont="0"/>
    </junction>
    <junction id="B1" type="dead_end" x="47.78" y="-1.19" incLanes="toB1_0" intLanes="" shape="47.78,-1.19 43.78,-1.08 47.78,-1.19"/>
    <junction id="B2" type="dead_end" x="45.54" y="105.54" incLanes="toB2_0" intLanes="" shape="45.54,105.54 48.57,106.56 45.54,105.54"/>
    <junction id="B22" type="priority" x="50.99" y="89.36" incLanes="toB22_0 fromB2_0 fromB2_1" intLanes=":B22_0_0 :B22_1_0 :B22_1_1 :B22_1_2" shape="54.16,92.00 41.52,91.98 41.52,95.47 41.44,96.70 41.23,97.91 40.85,99.34 40.24,101.23 49.33,104.30 50.42,101.67 51.50,99.80 52.51,98.28 53.34,96.73 53.92,94.77">
        <request index="0" response="0000" foes="0000" cont="0"/>
        <request index="1" response="0000" foes="0000" cont="0"/>
        <request index="2" response="0000" foes="0000" cont="0"/>
        <request index="3" response="0000" foes="0000" cont="0"/>
    </junction>
    <junction id="C" type="traffic_light" x="48.19" y="55.18" incLanes="fromB22_0 fromB22_1 fromB22_2 fromA11_0 fromA11_1 fromA11_2 fromB1_0 fromB1_1 fromB1_2 fromA22_0 fromA22_1 fromA22_2" intLanes=":C_0_0 :C_1_0 :C_12_0 :C_3_0 :C_4_0 :C_13_0 :C_6_0 :C_7_0 :C_14_0 :C_9_0 :C_10_0 :C_15_0" shape="41.55,69.71 54.43,69.87 55.49,66.37 56.79,65.13 58.58,64.21 60.89,63.63 63.70,63.39 64.12,44.12 61.28,43.62 60.28,43.04 59.55,42.25 59.10,41.24 58.92,40.01 44.93,40.40 44.75,42.54 44.10,44.30 42.96,45.68 41.35,46.67 39.25,47.29 36.68,47.52 35.51,62.51 38.87,63.52 40.05,64.55 40.88,65.92 41.39,67.64">
        <request index="0"  response="000000010000" foes="000100010000" cont="0"/>
        <request index="1"  response="111000110000" foes="111100110000" cont="0"/>
        <request index="2"  response="110011110000" foes="110011110000" cont="1"/>
        <request index="3"  response="000000000000" foes="100010000000" cont="0"/>
        <request index="4"  response="000100000100" foes="100110000111" cont="0"/>
        <request index="5"  response="011100000100" foes="011110000110" cont="1"/>
        <request index="6"  response="010000000000" foes="010000000100" cont="0"/>
        <request index="7"  response="110000111000" foes="110000111100" cont="0"/>
        <request index="8"  response="110000110011" foes="110000110011" cont="1"/>
        <request index="9"  response="000000000000" foes="000000100010" cont="0"/>
        <request index="10" response="000100000100" foes="000111100110" cont="0"/>
        <request index="11" response="000100011100" foes="000110011110" cont="1"/>
    </junction>
    <junction id="D" type="traffic_light" x="-65.52" y="55.79" incLanes="A2toD_0 A2toD_1 A2toD_2 fromD11_0 fromD11_1 fromA33_0 fromA33_1 fromA33_2 fromD22_0 fromD22_1" intLanes=":D_0_0 :D_1_0 :D_13_0 :D_3_0 :D_4_0 :D_14_0 :D_6_0 :D_7_0 :D_7_1 :D_15_0 :D_10_0 :D_11_0 :D_16_0" shape="-54.68,65.48 -55.12,49.10 -57.34,48.38 -58.12,47.43 -58.68,46.08 -59.01,44.34 -59.12,42.19 -68.72,42.20 -69.54,44.42 -70.55,45.20 -71.97,45.76 -73.80,46.10 -76.03,46.21 -76.00,59.01 -73.81,60.14 -73.07,61.55 -72.56,63.52 -72.29,66.06 -72.26,69.17 -62.66,69.41 -61.73,67.20 -60.62,66.43 -59.07,65.89 -57.09,65.57">
        <request index="0"  response="0000000000000" foes="0001000010000" cont="0"/>
        <request index="1"  response="1000000100000" foes="1111000110000" cont="0"/>
        <request index="2"  response="1000111100000" foes="1100111110000" cont="1"/>
        <request index="3"  response="0000110000000" foes="0000110000000" cont="0"/>
        <request index="4"  response="0001110000111" foes="1001110000111" cont="0"/>
        <request index="5"  response="0111110000110" foes="0111110000110" cont="1"/>
        <request index="6"  response="0000000000000" foes="0100000000100" cont="0"/>
        <request index="7"  response="1000000100000" foes="1100000111100" cont="0"/>
        <request index="8"  response="1000000100000" foes="1100000111100" cont="0"/>
        <request index="9"  response="1000000100011" foes="1100000110011" cont="1"/>
        <request index="10" response="0000000000010" foes="0000000100010" cont="0"/>
        <request index="11" response="0001111000110" foes="0001111100110" cont="0"/>
        <request index="12" response="0001110010110" foes="0001110010110" cont="1"/>
    </junction>
    <junction id="D1" type="dead_end" x="-62.15" y="-17.25" incLanes="toD1_0" intLanes="" shape="-62.21,-17.25 -59.01,-17.24 -68.33,-17.32"/>
    <junction id="D11" type="priority" x="-65.53" y="19.29" incLanes="toD11_0 fromD1_0" intLanes=":D11_0_0 :D11_1_0 :D11_1_1" shape="-68.73,23.30 -59.13,23.30 -59.14,15.32 -68.69,15.21">
        <request index="0" response="000" foes="000" cont="0"/>
        <request index="1" response="000" foes="000" cont="0"/>
        <request index="2" response="000" foes="000" cont="0"/>
    </junction>
    <junction id="D2" type="dead_end" x="-67.72" y="118.57" incLanes="toD2_0" intLanes="" shape="-73.88,118.37 -64.52,118.72 -67.72,118.57"/>
    <junction id="D22" type="priority" x="-66.35" y="88.47" incLanes="toD22_0 fromD2_0" intLanes=":D22_0_0 :D22_1_0 :D22_1_1" shape="-63.05,84.54 -72.65,84.30 -73.01,92.25 -63.34,92.69">
        <request index="0" response="000" foes="000" cont="0"/>
        <request index="1" response="000" foes="000" cont="0"/>
        <request index="2" response="000" foes="000" cont="0"/>
    </junction>

    <junction id=":C_12_0" type="internal" x="51.59" y="57.10" incLanes=":C_2_0 fromB1_0 fromB1_1" intLanes=":C_4_0 :C_5_0 :C_6_0 :C_7_0 :C_10_0 :C_11_0"/>
    <junction id=":C_13_0" type="internal" x="54.73" y="53.17" incLanes=":C_5_0 fromA22_0 fromA22_1" intLanes=":C_1_0 :C_2_0 :C_7_0 :C_8_0 :C_9_0 :C_10_0"/>
    <junction id=":C_14_0" type="internal" x="48.66" y="54.12" incLanes=":C_8_0 fromB22_0 fromB22_1" intLanes=":C_0_0 :C_1_0 :C_4_0 :C_5_0 :C_10_0 :C_11_0"/>
    <junction id=":C_15_0" type="internal" x="46.98" y="58.10" incLanes=":C_11_0 fromA11_0 fromA11_1" intLanes=":C_1_0 :C_2_0 :C_3_0 :C_4_0 :C_7_0 :C_8_0"/>
    <junction id=":D_13_0" type="internal" x="-62.37" y="54.88" incLanes=":D_2_0 fromA33_0 fromA33_1" intLanes=":D_4_0 :D_5_0 :D_6_0 :D_7_0 :D_7_1 :D_11_0 :D_12_0"/>
    <junction id=":D_14_0" type="internal" x="-67.16" y="53.76" incLanes=":D_5_0 fromD22_0" intLanes=":D_1_0 :D_2_0 :D_7_0 :D_7_1 :D_9_0 :D_10_0 :D_11_0"/>
    <junction id=":D_15_0" type="internal" x="-67.96" y="57.26" incLanes=":D_9_0 A2toD_0 A2toD_1" intLanes=":D_0_0 :D_1_0 :D_4_0 :D_5_0 :D_11_0 :D_12_0"/>
    <junction id=":D_16_0" type="internal" x="-64.15" y="57.91" incLanes=":D_12_0 fromD11_0" intLanes=":D_1_0 :D_2_0 :D_3_0 :D_4_0 :D_7_0 :D_7_1 :D_9_0"/>

    <connection from="A2toD" to="toD22" fromLane="0" toLane="0" via=":D_0_0" tl="D" linkIndex="0" dir="r" state="O"/>
    <connection from="A2toD" to="toA33" fromLane="1" toLane="0" via=":D_1_0" tl="D" linkIndex="1" dir="s" state="O"/>
    <connection from="A2toD" to="toD11" fromLane="2" toLane="0" via=":D_2_0" tl="D" linkIndex="2" dir="l" state="o"/>
    <connection from="DtoA2" to="fromA2" fromLane="0" toLane="0" via=":A2_3_0" dir="s" state="M"/>