<?xml version="1.0" encoding="UTF-8"?>
<additional>
    <tlLogic id="C" type="static" programID="a" offset="0">
        <phase duration="21" state="rrrGGgrrrGGg"/>
        <phase duration="3" state="rrryygrrryyg"/>
        <phase duration="9" state="rrrrrGrrrrrG"/>
        <phase duration="3" state="rrrrryrrrrry"/>
        <phase duration="15" state="GGgrrrGGgrrr"/>
        <phase duration="3" state="yygrrryygrrr"/>
        <phase duration="5" state="rrGrrrrrGrrr"/>
        <phase duration="3" state="rryrrrrryrrr"/>
    </tlLogic>
</additional>
