<?xml version="1.0" ?>
<routes xmlns:xsi="http://www.w3.org/2001/XMLSchema-instance" xsi:noNamespaceSchemaLocation="http://sumo.dlr.de/xsd/routes_file.xsd">
  <trip id="poisson0" depart="6" from="E0" to="E1" departLane="1" color="0,100,255" />
  <trip id="poisson1" depart="18" from="E0" to="E1" departLane="1" color="0,100,255" />
  <trip id="poisson2" depart="25" from="E0" to="E1" departLane="1" color="0,100,255" />
  <trip id="poisson3" depart="25" from="E0" to="E1" departLane="1" color="0,100,255" />
  <trip id="poisson4" depart="26" from="E0" to="E1" departLane="1" color="0,100,255" />
  <trip id="poisson5" depart="26" from="E0" to="E1" departLane="1" color="0,100,255" />
  <trip id="poisson6" depart="30" from="E0" to="E1" departLane="1" color="0,100,255" />
  <trip id="poisson7" depart="38" from="E0" to="E1" departLane="1" color="0,100,255" />
  <trip id="poisson8" depart="45" from="E0" to="E1" departLane="1" color="0,100,255" />
  <trip id="poisson9" depart="53" from="E0" to="E1" departLane="1" color="0,100,255" />
  <trip id="poisson10" depart="55" from="E0" to="E1" departLane="1" color="0,100,255" />
  <trip id="poisson11" depart="61" from="E0" to="E1" departLane="1" color="0,100,255" />
  <trip id="poisson12" depart="61" from="E0" to="E1" departLane="1" color="0,100,255" />
  <trip id="poisson13" depart="62" from="E0" to="E1" departLane="1" color="0,100,255" />
  <trip id="poisson14" depart="67" from="E0" to="E1" departLane="1" color="0,100,255" />
  <trip id="poisson15" depart="72" from="E0" to="E1" departLane="1" color="0,100,255" />
  <trip id="poisson16" depart="75" from="E0" to="E1" departLane="1" color="0,100,255" />
  <trip id="poisson17" depart="77" from="E0" to="E1" departLane="1" color="0,100,255" />
  <trip id="poisson18" depart="81" from="E0" to="E1" departLane="1" color="0,100,255" />
  <trip id="poisson19" depart="95" from="E0" to="E1" departLane="1" color="0,100,255" />
  <trip id="poisson20" depart="98" from="E0" to="E1" departLane="1" color="0,100,255" />
  <trip id="poisson21" depart="104" from="E0" to="E1" departLane="1" color="0,100,255" />
  <trip id="poisson22" depart="105" from="E0" to="E1" departLane="1" color="0,100,255" />
  <trip id="poisson23" depart="107" from="E0" to="E1" departLane="1" color="0,100,255" />
  <trip id="poisson24" depart="117" from="E0" to="E1" departLane="1" color="0,100,255" />
  <trip id="poisson25" depart="128" from="E0" to="E1" departLane="1" color="0,100,255" />
  <trip id="poisson26" depart="130" from="E0" to="E1" departLane="1" color="0,100,255" />
  <trip id="poisson27" depart="137" from="E0" to="E1" departLane="1" color="0,100,255" />
  <trip id="poisson28" depart="140" from="E0" to="E1" departLane="1" color="0,100,255" />
  <trip id="poisson29" depart="149" from="E0" to="E1" departLane="1" color="0,100,255" />
  <trip id="poisson30" depart="149" from="E0" to="E1" departLane="1" color="0,100,255" />
  <trip id="poisson31" depart="153" from="E0" to="E1" departLane="1" color="0,100,255" />
  <trip id="poisson32" depart="154" from="E0" to="E1" departLane="1" color="0,100,255" />
  <trip id="poisson33" depart="158" from="E0" to="E1" departLane="1" color="0,100,255" />
  <trip id="poisson34" depart="158" from="E0" to="E1" departLane="1" color="0,100,255" />
  <trip id="poisson35" depart="164" from="E0" to="E1" departLane="1" color="0,100,255" />
  <trip id="poisson36" depart="165" from="E0" to="E1" departLane="1" color="0,100,255" />
  <trip id="poisson37" depart="170" from="E0" to="E1" departLane="1" color="0,100,255" />
  <trip id="poisson38" depart="171" from="E0" to="E1" departLane="1" color="0,100,255" />
  <trip id="poisson39" depart="174" from="E0" to="E1" departLane="1" color="0,100,255" />
  <trip id="poisson40" depart="176" from="E0" to="E1" departLane="1" color="0,100,255" />
  <trip id="poisson41" depart="177" from="E0" to="E1" departLane="1" color="0,100,255" />
  <trip id="poisson42" depart="182" from="E0" to="E1" departLane="1" color="0,100,255" />
  <trip id="poisson43" depart="185" from="E0" to="E1" departLane="1" color="0,100,255" />
  <trip id="poisson44" depart="189" from="E0" to="E1" departLane="1" color="0,100,255" />
  <trip id="poisson45" depart="198" from="E0" to="E1" departLane="1" color="0,100,255" />
  <trip id="poisson46" depart="200" from="E0" to="E1" departLane="1" color="0,100,255" />
  <trip id="poisson47" depart="220" from="E0" to="E1" departLane="1" color="0,100,255" />
  <trip id="poisson48" depart="222" from="E0" to="E1" departLane="1" color="0,100,255" />
  <trip id="poisson49" depart="223" from="E0" to="E1" departLane="1" color="0,100,255" />
  <trip id="poisson50" depart="236" from="E0" to="E1" departLane="1" color="0,100,255" />
  <trip id="poisson51" depart="240" from="E0" to="E1" departLane="1" color="0,100,255" />
  <trip id="poisson52" depart="241" from="E0" to="E1" departLane="1" color="0,100,255" />
  <trip id="poisson53" depart="249" from="E0" to="E1" departLane="1" color="0,100,255" />
  <trip id="poisson54" depart="250" from="E0" to="E1" departLane="1" color="0,100,255" />
  <trip id="poisson55" depart="252" from="E0" to="E1" departLane="1" color="0,100,255" />
  <trip id="poisson56" depart="257" from="E0" to="E1" departLane="1" color="0,100,255" />
  <trip id="poisson57" depart="257" from="E0" to="E1" departLane="1" color="0,100,255" />
  <trip id="poisson58" depart="258" from="E0" to="E1" departLane="1" color="0,100,255" />
  <trip id="poisson59" depart="259" from="E0" to="E1" departLane="1" color="0,100,255" />
  <trip id="poisson60" depart="260" from="E0" to="E1" departLane="1" color="0,100,255" />
  <trip id="poisson61" depart="267" from="E0" to="E1" departLane="1" color="0,100,255" />
  <trip id="poisson62" depart="270" from="E0" to="E1" departLane="1" color="0,100,255" />
  <trip id="poisson63" depart="270" from="E0" to="E1" departLane="1" color="0,100,255" />
  <trip id="poisson64" depart="274" from="E0" to="E1" departLane="1" color="0,100,255" />
  <trip id="poisson65" depart="276" from="E0" to="E1" departLane="1" color="0,100,255" />
  <trip id="poisson66" depart="280" from="E0" to="E1" departLane="1" color="0,100,255" />
  <trip id="poisson67" depart="282" from="E0" to="E1" departLane="1" color="0,100,255" />
  <trip id="poisson68" depart="284" from="E0" to="E1" departLane="1" color="0,100,255" />
  <trip id="poisson69" depart="287" from="E0" to="E1" departLane="1" color="0,100,255" />
  <trip id="poisson70" depart="288" from="E0" to="E1" departLane="1" color="0,100,255" />
  <trip id="poisson71" depart="288" from="E0" to="E1" departLane="1" color="0,100,255" />
  <trip id="poisson72" depart="292" from="E0" to="E1" departLane="1" color="0,100,255" />
  <trip id="poisson73" depart="300" from="E0" to="E1" departLane="1" color="0,100,255" />
  <trip id="poisson74" depart="300" from="E0" to="E1" departLane="1" color="0,100,255" />
  <trip id="poisson75" depart="309" from="E0" to="E1" departLane="1" color="0,100,255" />
  <trip id="poisson76" depart="309" from="E0" to="E1" departLane="1" color="0,100,255" />
  <trip id="poisson77" depart="322" from="E0" to="E1" departLane="1" color="0,100,255" />
  <trip id="poisson78" depart="324" from="E0" to="E1" departLane="1" color="0,100,255" />
  <trip id="poisson79" depart="325" from="E0" to="E1" departLane="1" color="0,100,255" />
  <trip id="poisson80" depart="327" from="E0" to="E1" departLane="1" color="0,100,255" />
  <trip id="poisson81" depart="329" from="E0" to="E1" departLane="1" color="0,100,255" />
  <trip id="poisson82" depart="336" from="E0" to="E1" departLane="1" color="0,100,255" />
  <trip id="poisson83" depart="346" from="E0" to="E1" departLane="1" color="0,100,255" />
  <trip id="poisson84" depart="348" from="E0" to="E1" departLane="1" color="0,100,255" />
  <trip id="poisson85" depart="350" from="E0" to="E1" departLane="1" color="0,100,255" />
  <trip id="poisson86" depart="358" from="E0" to="E1" departLane="1" color="0,100,255" />
  <trip id="poisson87" depart="361" from="E0" to="E1" departLane="1" color="0,100,255" />
  <trip id="poisson88" depart="386" from="E0" to="E1" departLane="1" color="0,100,255" />
  <trip id="poisson89" depart="388" from="E0" to="E1" departLane="1" color="0,100,255" />
  <trip id="poisson90" depart="390" from="E0" to="E1" departLane="1" color="0,100,255" />
  <trip id="poisson91" depart="396" from="E0" to="E1" departLane="1" color="0,100,255" />
  <trip id="poisson92" depart="400" from="E0" to="E1" departLane="1" color="0,100,255" />
  <trip id="poisson93" depart="401" from="E0" to="E1" departLane="1" color="0,100,255" />
  <trip id="poisson94" depart="408" from="E0" to="E1" departLane="1" color="0,100,255" />
  <trip id="poisson95" depart="418" from="E0" to="E1" departLane="1" color="0,100,255" />
  <trip id="poisson96" depart="420" from="E0" to="E1" departLane="1" color="0,100,255" />
  <trip id="poisson97" depart="425" from="E0" to="E1" departLane="1" color="0,100,255" />
  <trip id="poisson98" depart="425" from="E0" to="E1" departLane="1" color="0,100,255" />
  <trip id="poisson99" depart="427" from="E0" to="E1" departLane="1" color="0,100,255" />
  <trip id="poisson100" depart="428" from="E0" to="E1" departLane="1" color="0,100,255" />
  <trip id="poisson101" depart="429" from="E0" to="E1" departLane="1" color="0,100,255" />
  <trip id="poisson102" depart="433" from="E0" to="E1" departLane="1" color="0,100,255" />
  <trip id="poisson103" depart="436" from="E0" to="E1" departLane="1" color="0,100,255" />
  <trip id="poisson104" depart="440" from="E0" to="E1" departLane="1" color="0,100,255" />
  <trip id="poisson105" depart="450" from="E0" to="E1" departLane="1" color="0,100,255" />
  <trip id="poisson106" depart="458" from="E0" to="E1" departLane="1" color="0,100,255" />
  <trip id="poisson107" depart="462" from="E0" to="E1" departLane="1" color="0,100,255" />
  <trip id="poisson108" depart="465" from="E0" to="E1" departLane="1" color="0,100,255" />
  <trip id="poisson109" depart="466" from="E0" to="E1" departLane="1" color="0,100,255" />
  <trip id="poisson110" depart="485" from="E0" to="E1" departLane="1" color="0,100,255" />
  <trip id="poisson111" depart="486" from="E0" to="E1" departLane="1" color="0,100,255" />
  <trip id="poisson112" depart="487" from="E0" to="E1" departLane="1" color="0,100,255" />
  <trip id="poisson113" depart="498" from="E0" to="E1" departLane="1" color="0,100,255" />
  <trip id="poisson114" depart="499" from="E0" to="E1" departLane="1" color="0,100,255" />
  <trip id="poisson115" depart="502" from="E0" to="E1" departLane="1" color="0,100,255" />
  <trip id="poisson116" depart="507" from="E0" to="E1" departLane="1" color="0,100,255" />
  <trip id="poisson117" depart="512" from="E0" to="E1" departLane="1" color="0,100,255" />
  <trip id="poisson118" depart="514" from="E0" to="E1" departLane="1" color="0,100,255" />
  <trip id="poisson119" depart="517" from="E0" to="E1" departLane="1" color="0,100,255" />
  <trip id="poisson120" depart="518" from="E0" to="E1" departLane="1" color="0,100,255" />
  <trip id="poisson121" depart="519" from="E0" to="E1" departLane="1" color="0,100,255" />
  <trip id="poisson122" depart="534" from="E0" to="E1" departLane="1" color="0,100,255" />
  <trip id="poisson123" depart="536" from="E0" to="E1" departLane="1" color="0,100,255" />
  <trip id="poisson124" depart="539" from="E0" to="E1" departLane="1" color="0,100,255" />
  <trip id="poisson125" depart="545" from="E0" to="E1" departLane="1" color="0,100,255" />
  <trip id="poisson126" depart="549" from="E0" to="E1" departLane="1" color="0,100,255" />
  <trip id="poisson127" depart="549" from="E0" to="E1" departLane="1" color="0,100,255" />
  <trip id="poisson128" depart="552" from="E0" to="E1" departLane="1" color="0,100,255" />
  <trip id="poisson129" depart="556" from="E0" to="E1" departLane="1" color="0,100,255" />
  <trip id="poisson130" depart="556" from="E0" to="E1" departLane="1" color="0,100,255" />
  <trip id="poisson131" depart="556" from="E0" to="E1" departLane="1" color="0,100,255" />
  <trip id="poisson132" depart="563" from="E0" to="E1" departLane="1" color="0,100,255" />
  <trip id="poisson133" depart="570" from="E0" to="E1" departLane="1" color="0,100,255" />
  <trip id="poisson134" depart="574" from="E0" to="E1" departLane="1" color="0,100,255" />
  <trip id="poisson135" depart="575" from="E0" to="E1" departLane="1" color="0,100,255" />
  <trip id="poisson136" depart="600" from="E0" to="E1" departLane="1" color="0,100,255" />
  <trip id="poisson137" depart="607" from="E0" to="E1" departLane="1" color="0,100,255" />
  <trip id="poisson138" depart="610" from="E0" to="E1" departLane="1" color="0,100,255" />
  <trip id="poisson139" depart="610" from="E0" to="E1" departLane="1" color="0,100,255" />
  <trip id="poisson140" depart="615" from="E0" to="E1" departLane="1" color="0,100,255" />
  <trip id="poisson141" depart="615" from="E0" to="E1" departLane="1" color="0,100,255" />
  <trip id="poisson142" depart="617" from="E0" to="E1" departLane="1" color="0,100,255" />
  <trip id="poisson143" depart="621" from="E0" to="E1" departLane="1" color="0,100,255" />
  <trip id="poisson144" depart="626" from="E0" to="E1" departLane="1" color="0,100,255" />
  <trip id="poisson145" depart="629" from="E0" to="E1" departLane="1" color="0,100,255" />
  <trip id="poisson146" depart="633" from="E0" to="E1" departLane="1" color="0,100,255" />
  <trip id="poisson147" depart="633" from="E0" to="E1" departLane="1" color="0,100,255" />
  <trip id="poisson148" depart="633" from="E0" to="E1" departLane="1" color="0,100,255" />
  <trip id="poisson149" depart="634" from="E0" to="E1" departLane="1" color="0,100,255" />
  <trip id="poisson150" depart="637" from="E0" to="E1" departLane="1" color="0,100,255" />
  <trip id="poisson151" depart="643" from="E0" to="E1" departLane="1" color="0,100,255" />
  <trip id="poisson152" depart="648" from="E0" to="E1" departLane="1" color="0,100,255" />
  <trip id="poisson153" depart="652" from="E0" to="E1" departLane="1" color="0,100,255" />
  <trip id="poisson154" depart="654" from="E0" to="E1" departLane="1" color="0,100,255" />
  <trip id="poisson155" depart="656" from="E0" to="E1" departLane="1" color="0,100,255" />
  <trip id="poisson156" depart="658" from="E0" to="E1" departLane="1" color="0,100,255" />
  <trip id="poisson157" depart="659" from="E0" to="E1" departLane="1" color="0,100,255" />
  <trip id="poisson158" depart="668" from="E0" to="E1" departLane="1" color="0,100,255" />
  <trip id="poisson159" depart="691" from="E0" to="E1" departLane="1" color="0,100,255" />
  <trip id="poisson160" depart="695" from="E0" to="E1" departLane="1" color="0,100,255" />
  <trip id="poisson161" depart="700" from="E0" to="E1" departLane="1" color="0,100,255" />
  <trip id="poisson162" depart="700" from="E0" to="E1" departLane="1" color="0,100,255" />
  <trip id="poisson163" depart="708" from="E0" to="E1" departLane="1" color="0,100,255" />
  <trip id="poisson164" depart="708" from="E0" to="E1" departLane="1" color="0,100,255" />
  <trip id="poisson165" depart="712" from="E0" to="E1" departLane="1" color="0,100,255" />
  <trip id="poisson166" depart="714" from="E0" to="E1" departLane="1" color="0,100,255" />
  <trip id="poisson167" depart="714" from="E0" to="E1" departLane="1" color="0,100,255" />
  <trip id="poisson168" depart="727" from="E0" to="E1" departLane="1" color="0,100,255" />
  <trip id="poisson169" depart="743" from="E0" to="E1" departLane="1" color="0,100,255" />
  <trip id="poisson170" depart="744" from="E0" to="E1" departLane="1" color="0,100,255" />
  <trip id="poisson171" depart="745" from="E0" to="E1" departLane="1" color="0,100,255" />
  <trip id="poisson172" depart="747" from="E0" to="E1" departLane="1" color="0,100,255" />
  <trip id="poisson173" depart="749" from="E0" to="E1" departLane="1" color="0,100,255" />
  <trip id="poisson174" depart="750" from="E0" to="E1" departLane="1" color="0,100,255" />
  <trip id="poisson175" depart="753" from="E0" to="E1" departLane="1" color="0,100,255" />
  <trip id="poisson176" depart="754" from="E0" to="E1" departLane="1" color="0,100,255" />
  <trip id="poisson177" depart="757" from="E0" to="E1" departLane="1" color="0,100,255" />
  <trip id="poisson178" depart="769" from="E0" to="E1" departLane="1" color="0,100,255" />
  <trip id="poisson179" depart="778" from="E0" to="E1" departLane="1" color="0,100,255" />
  <trip id="poisson180" depart="790" from="E0" to="E1" departLane="1" color="0,100,255" />
  <trip id="poisson181" depart="798" from="E0" to="E1" departLane="1" color="0,100,255" />
  <trip id="poisson182" depart="801" from="E0" to="E1" departLane="1" color="0,100,255" />
  <trip id="poisson183" depart="805" from="E0" to="E1" departLane="1" color="0,100,255" />
  <trip id="poisson184" depart="815" from="E0" to="E1" departLane="1" color="0,100,255" />
  <trip id="poisson185" depart="821" from="E0" to="E1" departLane="1" color="0,100,255" />
  <trip id="poisson186" depart="826" from="E0" to="E1" departLane="1" color="0,100,255" />
  <trip id="poisson187" depart="835" from="E0" to="E1" departLane="1" color="0,100,255" />
  <trip id="poisson188" depart="842" from="E0" to="E1" departLane="1" color="0,100,255" />
  <trip id="poisson189" depart="854" from="E0" to="E1" departLane="1" color="0,100,255" />
  <trip id="poisson190" depart="861" from="E0" to="E1" departLane="1" color="0,100,255" />
  <trip id="poisson191" depart="863" from="E0" to="E1" departLane="1" color="0,100,255" />
  <trip id="poisson192" depart="868" from="E0" to="E1" departLane="1" color="0,100,255" />
  <trip id="poisson193" depart="875" from="E0" to="E1" departLane="1" color="0,100,255" />
  <trip id="poisson194" depart="876" from="E0" to="E1" departLane="1" color="0,100,255" />
  <trip id="poisson195" depart="884" from="E0" to="E1" departLane="1" color="0,100,255" />
  <trip id="poisson196" depart="886" from="E0" to="E1" departLane="1" color="0,100,255" />
  <trip id="poisson197" depart="886" from="E0" to="E1" departLane="1" color="0,100,255" />
  <trip id="poisson198" depart="895" from="E0" to="E1" departLane="1" color="0,100,255" />
  <trip id="poisson199" depart="897" from="E0" to="E1" departLane="1" color="0,100,255" />
  <trip id="poisson200" depart="904" from="E0" to="E1" departLane="1" color="0,100,255" />
  <trip id="poisson201" depart="904" from="E0" to="E1" departLane="1" color="0,100,255" />
  <trip id="poisson202" depart="914" from="E0" to="E1" departLane="1" color="0,100,255" />
  <trip id="poisson203" depart="915" from="E0" to="E1" departLane="1" color="0,100,255" />
  <trip id="poisson204" depart="918" from="E0" to="E1" departLane="1" color="0,100,255" />
  <trip id="poisson205" depart="920" from="E0" to="E1" departLane="1" color="0,100,255" />
  <trip id="poisson206" depart="924" from="E0" to="E1" departLane="1" color="0,100,255" />
  <trip id="poisson207" depart="928" from="E0" to="E1" departLane="1" color="0,100,255" />
  <trip id="poisson208" depart="933" from="E0" to="E1" departLane="1" color="0,100,255" />
  <trip id="poisson209" depart="941" from="E0" to="E1" departLane="1" color="0,100,255" />
  <trip id="poisson210" depart="946" from="E0" to="E1" departLane="1" color="0,100,255" />
  <trip id="poisson211" depart="951" from="E0" to="E1" departLane="1" color="0,100,255" />
  <trip id="poisson212" depart="957" from="E0" to="E1" departLane="1" color="0,100,255" />
  <trip id="poisson213" depart="957" from="E0" to="E1" departLane="1" color="0,100,255" />
  <trip id="poisson214" depart="960" from="E0" to="E1" departLane="1" color="0,100,255" />
  <trip id="poisson215" depart="967" from="E0" to="E1" departLane="1" color="0,100,255" />
  <trip id="poisson216" depart="970" from="E0" to="E1" departLane="1" color="0,100,255" />
  <trip id="poisson217" depart="973" from="E0" to="E1" departLane="1" color="0,100,255" />
  <trip id="poisson218" depart="979" from="E0" to="E1" departLane="1" color="0,100,255" />
  <trip id="poisson219" depart="982" from="E0" to="E1" departLane="1" color="0,100,255" />
  <trip id="poisson220" depart="987" from="E0" to="E1" departLane="1" color="0,100,255" />
</routes>
