<?xml version="1.0" encoding="UTF-8"?>
<!-- generated on 2021-09-20 11:05:48.742957 by $Id$ v1_7_0+1095-7111e26d53
  options: -n straight.net.xml -o periodic.trips.xml <doubleminus>prefix=p -e 1000 -p 5 <doubleminus>trip-attributes=departLane="0" /
-->
<routes xmlns:xsi="http://www.w3.org/2001/XMLSchema-instance" xsi:noNamespaceSchemaLocation="http://sumo.dlr.de/xsd/routes_file.xsd">
    <trip id="p0" depart="0.00" from="E0" to="E1" departLane="0" color="255,0,0" />
    <trip id="p1" depart="5.00" from="E0" to="E1" departLane="0" color="255,0,0" />
    <trip id="p2" depart="10.00" from="E0" to="E1" departLane="0" color="255,0,0" />
    <trip id="p3" depart="15.00" from="E0" to="E1" departLane="0" color="255,0,0" />
    <trip id="p4" depart="20.00" from="E0" to="E1" departLane="0" color="255,0,0" />
    <trip id="p5" depart="25.00" from="E0" to="E1" departLane="0" color="255,0,0" />
    <trip id="p6" depart="30.00" from="E0" to="E1" departLane="0" color="255,0,0" />
    <trip id="p7" depart="35.00" from="E0" to="E1" departLane="0" color="255,0,0" />
    <trip id="p8" depart="40.00" from="E0" to="E1" departLane="0" color="255,0,0" />
    <trip id="p9" depart="45.00" from="E0" to="E1" departLane="0" color="255,0,0" />
    <trip id="p10" depart="50.00" from="E0" to="E1" departLane="0" color="255,0,0" />
    <trip id="p11" depart="55.00" from="E0" to="E1" departLane="0" color="255,0,0" />
    <trip id="p12" depart="60.00" from="E0" to="E1" departLane="0" color="255,0,0" />
    <trip id="p13" depart="65.00" from="E0" to="E1" departLane="0" color="255,0,0" />
    <trip id="p14" depart="70.00" from="E0" to="E1" departLane="0" color="255,0,0" />
    <trip id="p15" depart="75.00" from="E0" to="E1" departLane="0" color="255,0,0" />
    <trip id="p16" depart="80.00" from="E0" to="E1" departLane="0" color="255,0,0" />
    <trip id="p17" depart="85.00" from="E0" to="E1" departLane="0" color="255,0,0" />
    <trip id="p18" depart="90.00" from="E0" to="E1" departLane="0" color="255,0,0" />
    <trip id="p19" depart="95.00" from="E0" to="E1" departLane="0" color="255,0,0" />
    <trip id="p20" depart="100.00" from="E0" to="E1" departLane="0" color="255,0,0" />
    <trip id="p21" depart="105.00" from="E0" to="E1" departLane="0" color="255,0,0" />
    <trip id="p22" depart="110.00" from="E0" to="E1" departLane="0" color="255,0,0" />
    <trip id="p23" depart="115.00" from="E0" to="E1" departLane="0" color="255,0,0" />
    <trip id="p24" depart="120.00" from="E0" to="E1" departLane="0" color="255,0,0" />
    <trip id="p25" depart="125.00" from="E0" to="E1" departLane="0" color="255,0,0" />
    <trip id="p26" depart="130.00" from="E0" to="E1" departLane="0" color="255,0,0" />
    <trip id="p27" depart="135.00" from="E0" to="E1" departLane="0" color="255,0,0" />
    <trip id="p28" depart="140.00" from="E0" to="E1" departLane="0" color="255,0,0" />
    <trip id="p29" depart="145.00" from="E0" to="E1" departLane="0" color="255,0,0" />
    <trip id="p30" depart="150.00" from="E0" to="E1" departLane="0" color="255,0,0" />
    <trip id="p31" depart="155.00" from="E0" to="E1" departLane="0" color="255,0,0" />
    <trip id="p32" depart="160.00" from="E0" to="E1" departLane="0" color="255,0,0" />
    <trip id="p33" depart="165.00" from="E0" to="E1" departLane="0" color="255,0,0" />
    <trip id="p34" depart="170.00" from="E0" to="E1" departLane="0" color="255,0,0" />
    <trip id="p35" depart="175.00" from="E0" to="E1" departLane="0" color="255,0,0" />
    <trip id="p36" depart="180.00" from="E0" to="E1" departLane="0" color="255,0,0" />
    <trip id="p37" depart="185.00" from="E0" to="E1" departLane="0" color="255,0,0" />
    <trip id="p38" depart="190.00" from="E0" to="E1" departLane="0" color="255,0,0" />
    <trip id="p39" depart="195.00" from="E0" to="E1" departLane="0" color="255,0,0" />
    <trip id="p40" depart="200.00" from="E0" to="E1" departLane="0" color="255,0,0" />
    <trip id="p41" depart="205.00" from="E0" to="E1" departLane="0" color="255,0,0" />
    <trip id="p42" depart="210.00" from="E0" to="E1" departLane="0" color="255,0,0" />
    <trip id="p43" depart="215.00" from="E0" to="E1" departLane="0" color="255,0,0" />
    <trip id="p44" depart="220.00" from="E0" to="E1" departLane="0" color="255,0,0" />
    <trip id="p45" depart="225.00" from="E0" to="E1" departLane="0" color="255,0,0" />
    <trip id="p46" depart="230.00" from="E0" to="E1" departLane="0" color="255,0,0" />
    <trip id="p47" depart="235.00" from="E0" to="E1" departLane="0" color="255,0,0" />
    <trip id="p48" depart="240.00" from="E0" to="E1" departLane="0" color="255,0,0" />
    <trip id="p49" depart="245.00" from="E0" to="E1" departLane="0" color="255,0,0" />
    <trip id="p50" depart="250.00" from="E0" to="E1" departLane="0" color="255,0,0" />
    <trip id="p51" depart="255.00" from="E0" to="E1" departLane="0" color="255,0,0" />
    <trip id="p52" depart="260.00" from="E0" to="E1" departLane="0" color="255,0,0" />
    <trip id="p53" depart="265.00" from="E0" to="E1" departLane="0" color="255,0,0" />
    <trip id="p54" depart="270.00" from="E0" to="E1" departLane="0" color="255,0,0" />
    <trip id="p55" depart="275.00" from="E0" to="E1" departLane="0" color="255,0,0" />
    <trip id="p56" depart="280.00" from="E0" to="E1" departLane="0" color="255,0,0" />
    <trip id="p57" depart="285.00" from="E0" to="E1" departLane="0" color="255,0,0" />
    <trip id="p58" depart="290.00" from="E0" to="E1" departLane="0" color="255,0,0" />
    <trip id="p59" depart="295.00" from="E0" to="E1" departLane="0" color="255,0,0" />
    <trip id="p60" depart="300.00" from="E0" to="E1" departLane="0" color="255,0,0" />
    <trip id="p61" depart="305.00" from="E0" to="E1" departLane="0" color="255,0,0" />
    <trip id="p62" depart="310.00" from="E0" to="E1" departLane="0" color="255,0,0" />
    <trip id="p63" depart="315.00" from="E0" to="E1" departLane="0" color="255,0,0" />
    <trip id="p64" depart="320.00" from="E0" to="E1" departLane="0" color="255,0,0" />
    <trip id="p65" depart="325.00" from="E0" to="E1" departLane="0" color="255,0,0" />
    <trip id="p66" depart="330.00" from="E0" to="E1" departLane="0" color="255,0,0" />
    <trip id="p67" depart="335.00" from="E0" to="E1" departLane="0" color="255,0,0" />
    <trip id="p68" depart="340.00" from="E0" to="E1" departLane="0" color="255,0,0" />
    <trip id="p69" depart="345.00" from="E0" to="E1" departLane="0" color="255,0,0" />
    <trip id="p70" depart="350.00" from="E0" to="E1" departLane="0" color="255,0,0" />
    <trip id="p71" depart="355.00" from="E0" to="E1" departLane="0" color="255,0,0" />
    <trip id="p72" depart="360.00" from="E0" to="E1" departLane="0" color="255,0,0" />
    <trip id="p73" depart="365.00" from="E0" to="E1" departLane="0" color="255,0,0" />
    <trip id="p74" depart="370.00" from="E0" to="E1" departLane="0" color="255,0,0" />
    <trip id="p75" depart="375.00" from="E0" to="E1" departLane="0" color="255,0,0" />
    <trip id="p76" depart="380.00" from="E0" to="E1" departLane="0" color="255,0,0" />
    <trip id="p77" depart="385.00" from="E0" to="E1" departLane="0" color="255,0,0" />
    <trip id="p78" depart="390.00" from="E0" to="E1" departLane="0" color="255,0,0" />
    <trip id="p79" depart="395.00" from="E0" to="E1" departLane="0" color="255,0,0" />
    <trip id="p80" depart="400.00" from="E0" to="E1" departLane="0" color="255,0,0" />
    <trip id="p81" depart="405.00" from="E0" to="E1" departLane="0" color="255,0,0" />
    <trip id="p82" depart="410.00" from="E0" to="E1" departLane="0" color="255,0,0" />
    <trip id="p83" depart="415.00" from="E0" to="E1" departLane="0" color="255,0,0" />
    <trip id="p84" depart="420.00" from="E0" to="E1" departLane="0" color="255,0,0" />
    <trip id="p85" depart="425.00" from="E0" to="E1" departLane="0" color="255,0,0" />
    <trip id="p86" depart="430.00" from="E0" to="E1" departLane="0" color="255,0,0" />
    <trip id="p87" depart="435.00" from="E0" to="E1" departLane="0" color="255,0,0" />
    <trip id="p88" depart="440.00" from="E0" to="E1" departLane="0" color="255,0,0" />
    <trip id="p89" depart="445.00" from="E0" to="E1" departLane="0" color="255,0,0" />
    <trip id="p90" depart="450.00" from="E0" to="E1" departLane="0" color="255,0,0" />
    <trip id="p91" depart="455.00" from="E0" to="E1" departLane="0" color="255,0,0" />
    <trip id="p92" depart="460.00" from="E0" to="E1" departLane="0" color="255,0,0" />
    <trip id="p93" depart="465.00" from="E0" to="E1" departLane="0" color="255,0,0" />
    <trip id="p94" depart="470.00" from="E0" to="E1" departLane="0" color="255,0,0" />
    <trip id="p95" depart="475.00" from="E0" to="E1" departLane="0" color="255,0,0" />
    <trip id="p96" depart="480.00" from="E0" to="E1" departLane="0" color="255,0,0" />
    <trip id="p97" depart="485.00" from="E0" to="E1" departLane="0" color="255,0,0" />
    <trip id="p98" depart="490.00" from="E0" to="E1" departLane="0" color="255,0,0" />
    <trip id="p99" depart="495.00" from="E0" to="E1" departLane="0" color="255,0,0" />
    <trip id="p100" depart="500.00" from="E0" to="E1" departLane="0" color="255,0,0" />
    <trip id="p101" depart="505.00" from="E0" to="E1" departLane="0" color="255,0,0" />
    <trip id="p102" depart="510.00" from="E0" to="E1" departLane="0" color="255,0,0" />
    <trip id="p103" depart="515.00" from="E0" to="E1" departLane="0" color="255,0,0" />
    <trip id="p104" depart="520.00" from="E0" to="E1" departLane="0" color="255,0,0" />
    <trip id="p105" depart="525.00" from="E0" to="E1" departLane="0" color="255,0,0" />
    <trip id="p106" depart="530.00" from="E0" to="E1" departLane="0" color="255,0,0" />
    <trip id="p107" depart="535.00" from="E0" to="E1" departLane="0" color="255,0,0" />
    <trip id="p108" depart="540.00" from="E0" to="E1" departLane="0" color="255,0,0" />
    <trip id="p109" depart="545.00" from="E0" to="E1" departLane="0" color="255,0,0" />
    <trip id="p110" depart="550.00" from="E0" to="E1" departLane="0" color="255,0,0" />
    <trip id="p111" depart="555.00" from="E0" to="E1" departLane="0" color="255,0,0" />
    <trip id="p112" depart="560.00" from="E0" to="E1" departLane="0" color="255,0,0" />
    <trip id="p113" depart="565.00" from="E0" to="E1" departLane="0" color="255,0,0" />
    <trip id="p114" depart="570.00" from="E0" to="E1" departLane="0" color="255,0,0" />
    <trip id="p115" depart="575.00" from="E0" to="E1" departLane="0" color="255,0,0" />
    <trip id="p116" depart="580.00" from="E0" to="E1" departLane="0" color="255,0,0" />
    <trip id="p117" depart="585.00" from="E0" to="E1" departLane="0" color="255,0,0" />
    <trip id="p118" depart="590.00" from="E0" to="E1" departLane="0" color="255,0,0" />
    <trip id="p119" depart="595.00" from="E0" to="E1" departLane="0" color="255,0,0" />
    <trip id="p120" depart="600.00" from="E0" to="E1" departLane="0" color="255,0,0" />
    <trip id="p121" depart="605.00" from="E0" to="E1" departLane="0" color="255,0,0" />
    <trip id="p122" depart="610.00" from="E0" to="E1" departLane="0" color="255,0,0" />
    <trip id="p123" depart="615.00" from="E0" to="E1" departLane="0" color="255,0,0" />
    <trip id="p124" depart="620.00" from="E0" to="E1" departLane="0" color="255,0,0" />
    <trip id="p125" depart="625.00" from="E0" to="E1" departLane="0" color="255,0,0" />
    <trip id="p126" depart="630.00" from="E0" to="E1" departLane="0" color="255,0,0" />
    <trip id="p127" depart="635.00" from="E0" to="E1" departLane="0" color="255,0,0" />
    <trip id="p128" depart="640.00" from="E0" to="E1" departLane="0" color="255,0,0" />
    <trip id="p129" depart="645.00" from="E0" to="E1" departLane="0" color="255,0,0" />
    <trip id="p130" depart="650.00" from="E0" to="E1" departLane="0" color="255,0,0" />
    <trip id="p131" depart="655.00" from="E0" to="E1" departLane="0" color="255,0,0" />
    <trip id="p132" depart="660.00" from="E0" to="E1" departLane="0" color="255,0,0" />
    <trip id="p133" depart="665.00" from="E0" to="E1" departLane="0" color="255,0,0" />
    <trip id="p134" depart="670.00" from="E0" to="E1" departLane="0" color="255,0,0" />
    <trip id="p135" depart="675.00" from="E0" to="E1" departLane="0" color="255,0,0" />
    <trip id="p136" depart="680.00" from="E0" to="E1" departLane="0" color="255,0,0" />
    <trip id="p137" depart="685.00" from="E0" to="E1" departLane="0" color="255,0,0" />
    <trip id="p138" depart="690.00" from="E0" to="E1" departLane="0" color="255,0,0" />
    <trip id="p139" depart="695.00" from="E0" to="E1" departLane="0" color="255,0,0" />
    <trip id="p140" depart="700.00" from="E0" to="E1" departLane="0" color="255,0,0" />
    <trip id="p141" depart="705.00" from="E0" to="E1" departLane="0" color="255,0,0" />
    <trip id="p142" depart="710.00" from="E0" to="E1" departLane="0" color="255,0,0" />
    <trip id="p143" depart="715.00" from="E0" to="E1" departLane="0" color="255,0,0" />
    <trip id="p144" depart="720.00" from="E0" to="E1" departLane="0" color="255,0,0" />
    <trip id="p145" depart="725.00" from="E0" to="E1" departLane="0" color="255,0,0" />
    <trip id="p146" depart="730.00" from="E0" to="E1" departLane="0" color="255,0,0" />
    <trip id="p147" depart="735.00" from="E0" to="E1" departLane="0" color="255,0,0" />
    <trip id="p148" depart="740.00" from="E0" to="E1" departLane="0" color="255,0,0" />
    <trip id="p149" depart="745.00" from="E0" to="E1" departLane="0" color="255,0,0" />
    <trip id="p150" depart="750.00" from="E0" to="E1" departLane="0" color="255,0,0" />
    <trip id="p151" depart="755.00" from="E0" to="E1" departLane="0" color="255,0,0" />
    <trip id="p152" depart="760.00" from="E0" to="E1" departLane="0" color="255,0,0" />
    <trip id="p153" depart="765.00" from="E0" to="E1" departLane="0" color="255,0,0" />
    <trip id="p154" depart="770.00" from="E0" to="E1" departLane="0" color="255,0,0" />
    <trip id="p155" depart="775.00" from="E0" to="E1" departLane="0" color="255,0,0" />
    <trip id="p156" depart="780.00" from="E0" to="E1" departLane="0" color="255,0,0" />
    <trip id="p157" depart="785.00" from="E0" to="E1" departLane="0" color="255,0,0" />
    <trip id="p158" depart="790.00" from="E0" to="E1" departLane="0" color="255,0,0" />
    <trip id="p159" depart="795.00" from="E0" to="E1" departLane="0" color="255,0,0" />
    <trip id="p160" depart="800.00" from="E0" to="E1" departLane="0" color="255,0,0" />
    <trip id="p161" depart="805.00" from="E0" to="E1" departLane="0" color="255,0,0" />
    <trip id="p162" depart="810.00" from="E0" to="E1" departLane="0" color="255,0,0" />
    <trip id="p163" depart="815.00" from="E0" to="E1" departLane="0" color="255,0,0" />
    <trip id="p164" depart="820.00" from="E0" to="E1" departLane="0" color="255,0,0" />
    <trip id="p165" depart="825.00" from="E0" to="E1" departLane="0" color="255,0,0" />
    <trip id="p166" depart="830.00" from="E0" to="E1" departLane="0" color="255,0,0" />
    <trip id="p167" depart="835.00" from="E0" to="E1" departLane="0" color="255,0,0" />
    <trip id="p168" depart="840.00" from="E0" to="E1" departLane="0" color="255,0,0" />
    <trip id="p169" depart="845.00" from="E0" to="E1" departLane="0" color="255,0,0" />
    <trip id="p170" depart="850.00" from="E0" to="E1" departLane="0" color="255,0,0" />
    <trip id="p171" depart="855.00" from="E0" to="E1" departLane="0" color="255,0,0" />
    <trip id="p172" depart="860.00" from="E0" to="E1" departLane="0" color="255,0,0" />
    <trip id="p173" depart="865.00" from="E0" to="E1" departLane="0" color="255,0,0" />
    <trip id="p174" depart="870.00" from="E0" to="E1" departLane="0" color="255,0,0" />
    <trip id="p175" depart="875.00" from="E0" to="E1" departLane="0" color="255,0,0" />
    <trip id="p176" depart="880.00" from="E0" to="E1" departLane="0" color="255,0,0" />
    <trip id="p177" depart="885.00" from="E0" to="E1" departLane="0" color="255,0,0" />
    <trip id="p178" depart="890.00" from="E0" to="E1" departLane="0" color="255,0,0" />
    <trip id="p179" depart="895.00" from="E0" to="E1" departLane="0" color="255,0,0" />
    <trip id="p180" depart="900.00" from="E0" to="E1" departLane="0" color="255,0,0" />
    <trip id="p181" depart="905.00" from="E0" to="E1" departLane="0" color="255,0,0" />
    <trip id="p182" depart="910.00" from="E0" to="E1" departLane="0" color="255,0,0" />
    <trip id="p183" depart="915.00" from="E0" to="E1" departLane="0" color="255,0,0" />
    <trip id="p184" depart="920.00" from="E0" to="E1" departLane="0" color="255,0,0" />
    <trip id="p185" depart="925.00" from="E0" to="E1" departLane="0" color="255,0,0" />
    <trip id="p186" depart="930.00" from="E0" to="E1" departLane="0" color="255,0,0" />
    <trip id="p187" depart="935.00" from="E0" to="E1" departLane="0" color="255,0,0" />
    <trip id="p188" depart="940.00" from="E0" to="E1" departLane="0" color="255,0,0" />
    <trip id="p189" depart="945.00" from="E0" to="E1" departLane="0" color="255,0,0" />
    <trip id="p190" depart="950.00" from="E0" to="E1" departLane="0" color="255,0,0" />
    <trip id="p191" depart="955.00" from="E0" to="E1" departLane="0" color="255,0,0" />
    <trip id="p192" depart="960.00" from="E0" to="E1" departLane="0" color="255,0,0" />
    <trip id="p193" depart="965.00" from="E0" to="E1" departLane="0" color="255,0,0" />
    <trip id="p194" depart="970.00" from="E0" to="E1" departLane="0" color="255,0,0" />
    <trip id="p195" depart="975.00" from="E0" to="E1" departLane="0" color="255,0,0" />
    <trip id="p196" depart="980.00" from="E0" to="E1" departLane="0" color="255,0,0" />
    <trip id="p197" depart="985.00" from="E0" to="E1" departLane="0" color="255,0,0" />
    <trip id="p198" depart="990.00" from="E0" to="E1" departLane="0" color="255,0,0" />
    <trip id="p199" depart="995.00" from="E0" to="E1" departLane="0" color="255,0,0" />
</routes>
