<?xml version="1.0" encoding="UTF-8"?>

<!-- generated on Mon 20 Sep 2021 10:52:14 AM CEST by Eclipse SUMO netedit Version v1_7_0+1095-7111e26d53
<configuration xmlns:xsi="http://www.w3.org/2001/XMLSchema-instance" xsi:noNamespaceSchemaLocation="http://sumo.dlr.de/xsd/netconvertConfiguration.xsd">

    <input>
        <sumo-net-file value="straight.net.xml"/>
    </input>

    <output>
        <output-file value="straight.net.xml"/>
    </output>

    <processing>
        <geometry.min-radius.fix.railways value="false"/>
        <geometry.max-grade.fix value="false"/>
        <offset.disable-normalization value="true"/>
        <lefthand value="false"/>
    </processing>

    <junctions>
        <no-internal-links value="true"/>
        <no-turnarounds value="true"/>
        <junctions.corner-detail value="5"/>
        <junctions.limit-turn-speed value="5.5"/>
        <rectangular-lane-cut value="false"/>
    </junctions>

    <pedestrian>
        <walkingareas value="false"/>
    </pedestrian>

    <report>
        <aggregate-warnings value="5"/>
    </report>

</configuration>
-->

<net version="1.6" junctionCornerDetail="5" limitTurnSpeed="5.50" xmlns:xsi="http://www.w3.org/2001/XMLSchema-instance" xsi:noNamespaceSchemaLocation="http://sumo.dlr.de/xsd/net_file.xsd">

    <location netOffset="0.00,0.00" convBoundary="-25.00,0.00,200.00,0.00" origBoundary="-10000000000.00,-10000000000.00,10000000000.00,10000000000.00" projParameter="!"/>

    <edge id="E0" from="N0" to="N1" priority="-1">
        <lane id="E0_0" index="0" speed="13.89" length="25.00" shape="-25.00,-4.80 0.00,-4.80"/>
        <lane id="E0_1" index="1" speed="13.89" length="25.00" shape="-25.00,-1.60 0.00,-1.60"/>
    </edge>
    <edge id="E1" from="N1" to="N2" priority="-1">
        <lane id="E1_0" index="0" speed="13.89" length="200.00" shape="0.00,-4.80 200.00,-4.80"/>
        <lane id="E1_1" index="1" speed="13.89" length="200.00" shape="0.00,-1.60 200.00,-1.60"/>
    </edge>

    <junction id="N0" type="dead_end" x="-25.00" y="0.00" incLanes="" intLanes="" shape="-25.00,0.00 -25.00,-6.40"/>
    <junction id="N1" type="priority" x="0.00" y="0.00" incLanes="E0_0 E0_1" intLanes="" shape="0.00,0.00 0.00,-6.40 0.00,0.00">
        <request index="0" response="00" foes="00"/>
        <request index="1" response="00" foes="00"/>
    </junction>
    <junction id="N2" type="dead_end" x="200.00" y="0.00" incLanes="E1_0 E1_1" intLanes="" shape="200.00,-6.40 200.00,0.00"/>

    <connection from="E0" to="E1" fromLane="0" toLane="0" dir="s" state="M"/>
    <connection from="E0" to="E1" fromLane="1" toLane="1" dir="s" state="M"/>

</net>
