<?xml version="1.0" encoding="UTF-8"?>

<!-- generated on Mon Oct 11 19:34:16 2021 by Eclipse SUMO netconvert Version v1_7_0+1095-7111e26d53
<configuration xmlns:xsi="http://www.w3.org/2001/XMLSchema-instance" xsi:noNamespaceSchemaLocation="http://sumo.dlr.de/xsd/netconvertConfiguration.xsd">

    <input>
        <sumo-net-file value="network2_double.net.xml"/>
    </input>

    <output>
        <output-file value="network2_double.net.xml"/>
    </output>

    <processing>
        <geometry.min-radius.fix.railways value="false"/>
        <geometry.max-grade.fix value="false"/>
        <offset.disable-normalization value="true"/>
        <lefthand value="false"/>
        <edges.join value="true"/>
    </processing>

    <junctions>
        <no-turnarounds value="true"/>
        <junctions.join value="true"/>
        <junctions.join-dist value="30"/>
        <junctions.corner-detail value="5"/>
        <junctions.limit-turn-speed value="5.5"/>
        <rectangular-lane-cut value="false"/>
    </junctions>

    <pedestrian>
        <walkingareas value="false"/>
    </pedestrian>

    <report>
        <aggregate-warnings value="5"/>
    </report>

</configuration>
-->

<net version="1.6" junctionCornerDetail="5" limitTurnSpeed="5.50" xmlns:xsi="http://www.w3.org/2001/XMLSchema-instance" xsi:noNamespaceSchemaLocation="http://sumo.dlr.de/xsd/net_file.xsd">

    <location netOffset="0.00,200.00" convBoundary="-200.00,0.00,600.00,400.00" origBoundary="-200.00,-200.00,200.00,200.00" projParameter="!"/>

    <type id="1L13.3" numLanes="1" speed="13.30" sidewalkWidth="2.00"/>
    <type id="2L13.3" numLanes="2" speed="13.30" sidewalkWidth="2.00"/>

    <edge id=":leftC_0" function="internal">
        <lane id=":leftC_0_0" index="0" disallow="pedestrian" speed="8.59" length="14.49" shape="-4.80,213.40 -5.34,208.24 -6.95,204.55 -9.64,202.34 -11.40,201.99"/>
    </edge>
    <edge id=":leftC_1" function="internal">
        <lane id=":leftC_1_0" index="0" disallow="pedestrian" speed="13.30" length="27.04" shape="-4.80,213.40 -4.30,204.93 -3.20,198.69 -2.10,193.11 -1.60,186.60"/>
    </edge>
    <edge id=":leftC_2" function="internal">
        <lane id=":leftC_2_0" index="0" disallow="pedestrian" speed="10.30" length="9.94" shape="-1.60,213.40 -0.66,206.84 1.04,204.00"/>
    </edge>
    <edge id=":leftC_3" function="internal">
        <lane id=":leftC_3_0" index="0" disallow="pedestrian" speed="3.65" length="2.46" shape="-1.60,213.40 -0.80,212.20 0.00,211.80 0.11,211.86"/>
    </edge>
    <edge id=":leftC_16" function="internal">
        <lane id=":leftC_16_0" index="0" disallow="pedestrian" speed="8.59" length="2.04" shape="-11.40,201.99 -13.40,201.60"/>
    </edge>
    <edge id=":leftC_17" function="internal">
        <lane id=":leftC_17_0" index="0" disallow="pedestrian" speed="10.30" length="14.26" shape="1.04,204.00 2.15,202.15 6.84,199.34 13.40,198.40"/>
    </edge>
    <edge id=":leftC_18" function="internal">
        <lane id=":leftC_18_0" index="0" disallow="pedestrian" speed="3.65" length="2.21" shape="0.11,211.86 0.80,212.20 1.60,213.40"/>
    </edge>
    <edge id=":leftC_4" function="internal">
        <lane id=":leftC_4_0" index="0" disallow="pedestrian" speed="8.59" length="16.53" shape="13.40,204.80 8.24,205.34 4.55,206.95 2.34,209.64 1.60,213.40"/>
    </edge>
    <edge id=":leftC_5" function="internal">
        <lane id=":leftC_5_0" index="0" disallow="pedestrian" speed="13.30" length="27.04" shape="13.40,204.80 4.93,204.30 -1.31,203.20 -6.89,202.10 -13.40,201.60"/>
    </edge>
    <edge id=":leftC_6" function="internal">
        <lane id=":leftC_6_0" index="0" disallow="pedestrian" speed="10.30" length="24.19" shape="13.40,201.60 6.84,200.66 2.15,197.85 -0.66,193.16 -1.60,186.60"/>
    </edge>
    <edge id=":leftC_7" function="internal">
        <lane id=":leftC_7_0" index="0" disallow="pedestrian" speed="3.65" length="4.67" shape="13.40,201.60 12.20,200.80 11.80,200.00 12.20,199.20 13.40,198.40"/>
    </edge>
    <edge id=":leftC_8" function="internal">
        <lane id=":leftC_8_0" index="0" disallow="pedestrian" speed="8.59" length="14.49" shape="4.80,186.60 5.34,191.76 6.95,195.45 9.64,197.66 11.40,198.01"/>
    </edge>
    <edge id=":leftC_9" function="internal">
        <lane id=":leftC_9_0" index="0" disallow="pedestrian" speed="13.30" length="27.04" shape="4.80,186.60 4.30,195.07 3.20,201.31 2.10,206.89 1.60,213.40"/>
    </edge>
    <edge id=":leftC_10" function="internal">
        <lane id=":leftC_10_0" index="0" disallow="pedestrian" speed="10.30" length="9.94" shape="1.60,186.60 0.66,193.16 -1.04,196.00"/>
    </edge>
    <edge id=":leftC_11" function="internal">
        <lane id=":leftC_11_0" index="0" disallow="pedestrian" speed="3.65" length="2.46" shape="1.60,186.60 0.80,187.80 0.00,188.20 -0.11,188.14"/>
    </edge>
    <edge id=":leftC_19" function="internal">
        <lane id=":leftC_19_0" index="0" disallow="pedestrian" speed="8.59" length="2.04" shape="11.40,198.01 13.40,198.40"/>
    </edge>
    <edge id=":leftC_20" function="internal">
        <lane id=":leftC_20_0" index="0" disallow="pedestrian" speed="10.30" length="14.26" shape="-1.04,196.00 -2.15,197.85 -6.84,200.66 -13.40,201.60"/>
    </edge>
    <edge id=":leftC_21" function="internal">
        <lane id=":leftC_21_0" index="0" disallow="pedestrian" speed="3.65" length="2.21" shape="-0.11,188.14 -0.80,187.80 -1.60,186.60"/>
    </edge>
    <edge id=":leftC_12" function="internal">
        <lane id=":leftC_12_0" index="0" disallow="pedestrian" speed="8.59" length="16.53" shape="-13.40,195.20 -8.24,194.66 -4.55,193.05 -2.34,190.36 -1.60,186.60"/>
    </edge>
    <edge id=":leftC_13" function="internal">
        <lane id=":leftC_13_0" index="0" disallow="pedestrian" speed="13.30" length="27.04" shape="-13.40,195.20 -4.93,195.70 1.31,196.80 6.89,197.90 13.40,198.40"/>
    </edge>
    <edge id=":leftC_14" function="internal">
        <lane id=":leftC_14_0" index="0" disallow="pedestrian" speed="10.30" length="24.19" shape="-13.40,198.40 -6.84,199.34 -2.15,202.15 0.66,206.84 1.60,213.40"/>
    </edge>
    <edge id=":leftC_15" function="internal">
        <lane id=":leftC_15_0" index="0" disallow="pedestrian" speed="3.65" length="4.67" shape="-13.40,198.40 -12.20,199.20 -11.80,200.00 -12.20,200.80 -13.40,201.60"/>
    </edge>
    <edge id=":leftC_c0" function="crossing" crossingEdges="leftCN leftNC">
        <lane id=":leftC_c0_0" index="0" allow="pedestrian" speed="1.00" length="9.60" width="2.00" shape="3.20,212.40 -6.40,212.40"/>
    </edge>
    <edge id=":leftC_c1" function="crossing" crossingEdges="leftCW leftWC">
        <lane id=":leftC_c1_0" index="0" allow="pedestrian" speed="1.00" length="9.60" width="2.00" shape="12.40,196.80 12.40,206.40"/>
    </edge>
    <edge id=":leftC_c2" function="crossing" crossingEdges="leftCS leftSC">
        <lane id=":leftC_c2_0" index="0" allow="pedestrian" speed="1.00" length="9.60" width="2.00" shape="-3.20,187.60 6.40,187.60"/>
    </edge>
    <edge id=":leftC_c3" function="crossing" crossingEdges="leftCE leftEC">
        <lane id=":leftC_c3_0" index="0" allow="pedestrian" speed="1.00" length="9.60" width="2.00" shape="-12.40,203.20 -12.40,193.60"/>
    </edge>
    <edge id=":leftC_w0" function="walkingarea">
        <lane id=":leftC_w0_0" index="0" allow="pedestrian" speed="1.00" length="7.82" width="2.00" shape="-13.40,203.20 -13.40,205.20 -8.40,213.40 -6.40,213.40 -6.59,210.28 -7.18,207.73 -8.15,205.75 -9.51,204.33 -11.26,203.48"/>
    </edge>
    <edge id=":leftC_w1" function="walkingarea">
        <lane id=":leftC_w1_0" index="0" allow="pedestrian" speed="1.00" length="7.82" width="2.00" shape="3.20,213.40 5.20,213.40 13.40,208.40 13.40,206.40 10.28,206.59 7.73,207.18 5.75,208.15 4.33,209.51 3.48,211.26"/>
    </edge>
    <edge id=":leftC_w2" function="walkingarea">
        <lane id=":leftC_w2_0" index="0" allow="pedestrian" speed="1.00" length="7.82" width="2.00" shape="13.40,196.80 13.40,194.80 8.40,186.60 6.40,186.60 6.59,189.72 7.18,192.27 8.15,194.25 9.51,195.67 11.26,196.52"/>
    </edge>
    <edge id=":leftC_w3" function="walkingarea">
        <lane id=":leftC_w3_0" index="0" allow="pedestrian" speed="1.00" length="7.82" width="2.00" shape="-3.20,186.60 -5.20,186.60 -13.40,191.60 -13.40,193.60 -10.28,193.41 -7.73,192.82 -5.75,191.85 -4.33,190.49 -3.48,188.74"/>
    </edge>
    <edge id=":leftE1_0" function="internal">
        <lane id=":leftE1_0_0" index="0" disallow="pedestrian" speed="3.65" length="4.67" shape="-200.00,201.60 -201.20,200.80 -201.60,200.00 -201.20,199.20 -200.00,198.40"/>
    </edge>
    <edge id=":leftE1_w0" function="walkingarea">
        <lane id=":leftE1_w0_0" index="0" allow="pedestrian" speed="1.00" length="8.40" width="2.00" shape="-200.00,196.80 -200.00,194.80 -200.00,205.20 -200.00,203.20"/>
    </edge>
    <edge id=":leftE2_0" function="internal">
        <lane id=":leftE2_0_0" index="0" disallow="pedestrian" speed="13.30" length="8.40" shape="-54.00,198.40 -51.54,197.90 -50.00,196.80 -48.46,195.70 -46.00,195.20"/>
        <lane id=":leftE2_0_1" index="1" disallow="pedestrian" speed="13.30" length="8.40" shape="-54.00,198.40 -46.00,198.40"/>
    </edge>
    <edge id=":leftE2_w0" function="walkingarea">
        <lane id=":leftE2_w0_0" index="0" allow="pedestrian" speed="1.00" length="8.62" width="2.00" shape="-46.00,193.60 -46.00,191.60 -54.00,194.80 -54.00,196.80 -52.21,196.56 -50.97,195.97 -50.00,195.20 -49.03,194.43 -47.79,193.84"/>
    </edge>
    <edge id=":leftN1_0" function="internal">
        <lane id=":leftN1_0_0" index="0" disallow="pedestrian" speed="3.65" length="4.67" shape="1.60,400.00 0.80,401.20 -0.00,401.60 -0.80,401.20 -1.60,400.00"/>
    </edge>
    <edge id=":leftN1_w0" function="walkingarea">
        <lane id=":leftN1_w0_0" index="0" allow="pedestrian" speed="1.00" length="8.40" width="2.00" shape="-3.20,400.00 -5.20,400.00 5.20,400.00 3.20,400.00"/>
    </edge>
    <edge id=":leftN2_0" function="internal">
        <lane id=":leftN2_0_0" index="0" disallow="pedestrian" speed="13.30" length="8.40" shape="-1.60,254.00 -2.10,251.54 -3.20,250.00 -4.30,248.46 -4.80,246.00"/>
        <lane id=":leftN2_0_1" index="1" disallow="pedestrian" speed="13.30" length="8.40" shape="-1.60,254.00 -1.60,246.00"/>
    </edge>
    <edge id=":leftN2_w0" function="walkingarea">
        <lane id=":leftN2_w0_0" index="0" allow="pedestrian" speed="1.00" length="8.62" width="2.00" shape="-6.40,246.00 -8.40,246.00 -5.20,254.00 -3.20,254.00 -3.44,252.21 -4.03,250.97 -4.80,250.00 -5.57,249.03 -6.16,247.79"/>
    </edge>
    <edge id=":leftS1_0" function="internal">
        <lane id=":leftS1_0_0" index="0" disallow="pedestrian" speed="3.65" length="4.67" shape="-1.60,0.00 -0.80,-1.20 0.00,-1.60 0.80,-1.20 1.60,0.00"/>
    </edge>
    <edge id=":leftS1_w0" function="walkingarea">
        <lane id=":leftS1_w0_0" index="0" allow="pedestrian" speed="1.00" length="8.40" width="2.00" shape="3.20,0.00 5.20,0.00 -5.20,0.00 -3.20,0.00"/>
    </edge>
    <edge id=":leftS2_0" function="internal">
        <lane id=":leftS2_0_0" index="0" disallow="pedestrian" speed="13.30" length="8.40" shape="1.60,146.00 2.10,148.46 3.20,150.00 4.30,151.54 4.80,154.00"/>
        <lane id=":leftS2_0_1" index="1" disallow="pedestrian" speed="13.30" length="8.40" shape="1.60,146.00 1.60,154.00"/>
    </edge>
    <edge id=":leftS2_w0" function="walkingarea">
        <lane id=":leftS2_w0_0" index="0" allow="pedestrian" speed="1.00" length="8.62" width="2.00" shape="6.40,154.00 8.40,154.00 5.20,146.00 3.20,146.00 3.44,147.79 4.03,149.03 4.80,150.00 5.57,150.97 6.16,152.21"/>
    </edge>
    <edge id=":leftW1_0" function="internal">
        <lane id=":leftW1_0_0" index="0" disallow="pedestrian" speed="3.65" length="4.67" shape="200.00,198.40 201.20,199.20 201.60,200.00 201.20,200.80 200.00,201.60"/>
    </edge>
    <edge id=":leftW1_w0" function="walkingarea">
        <lane id=":leftW1_w0_0" index="0" allow="pedestrian" speed="1.00" length="8.40" width="2.00" shape="200.00,203.20 200.00,205.20 200.00,194.80 200.00,196.80"/>
    </edge>
    <edge id=":leftW2_0" function="internal">
        <lane id=":leftW2_0_0" index="0" disallow="pedestrian" speed="13.30" length="8.40" shape="54.00,201.60 51.54,202.10 50.00,203.20 48.46,204.30 46.00,204.80"/>
        <lane id=":leftW2_0_1" index="1" disallow="pedestrian" speed="13.30" length="8.40" shape="54.00,201.60 46.00,201.60"/>
    </edge>
    <edge id=":leftW2_w0" function="walkingarea">
        <lane id=":leftW2_w0_0" index="0" allow="pedestrian" speed="1.00" length="8.62" width="2.00" shape="46.00,206.40 46.00,208.40 54.00,205.20 54.00,203.20 52.21,203.44 50.97,204.03 50.00,204.80 49.03,205.57 47.79,206.16"/>
    </edge>
    <edge id=":rightC_0" function="internal">
        <lane id=":rightC_0_0" index="0" disallow="pedestrian" speed="8.59" length="14.49" shape="395.20,213.40 394.66,208.24 393.05,204.55 390.36,202.34 388.60,201.99"/>
    </edge>
    <edge id=":rightC_1" function="internal">
        <lane id=":rightC_1_0" index="0" disallow="pedestrian" speed="13.30" length="27.04" shape="395.20,213.40 395.70,204.93 396.80,198.69 397.90,193.11 398.40,186.60"/>
    </edge>
    <edge id=":rightC_2" function="internal">
        <lane id=":rightC_2_0" index="0" disallow="pedestrian" speed="10.30" length="9.94" shape="398.40,213.40 399.34,206.84 401.04,204.00"/>
    </edge>
    <edge id=":rightC_3" function="internal">
        <lane id=":rightC_3_0" index="0" disallow="pedestrian" speed="3.65" length="2.46" shape="398.40,213.40 399.20,212.20 400.00,211.80 400.11,211.86"/>
    </edge>
    <edge id=":rightC_16" function="internal">
        <lane id=":rightC_16_0" index="0" disallow="pedestrian" speed="8.59" length="2.04" shape="388.60,201.99 386.60,201.60"/>
    </edge>
    <edge id=":rightC_17" function="internal">
        <lane id=":rightC_17_0" index="0" disallow="pedestrian" speed="10.30" length="14.26" shape="401.04,204.00 402.15,202.15 406.84,199.34 413.40,198.40"/>
    </edge>
    <edge id=":rightC_18" function="internal">
        <lane id=":rightC_18_0" index="0" disallow="pedestrian" speed="3.65" length="2.21" shape="400.11,211.86 400.80,212.20 401.60,213.40"/>
    </edge>
    <edge id=":rightC_4" function="internal">
        <lane id=":rightC_4_0" index="0" disallow="pedestrian" speed="8.59" length="16.53" shape="413.40,204.80 408.24,205.34 404.55,206.95 402.34,209.64 401.60,213.40"/>
    </edge>
    <edge id=":rightC_5" function="internal">
        <lane id=":rightC_5_0" index="0" disallow="pedestrian" speed="13.30" length="27.04" shape="413.40,204.80 404.93,204.30 398.69,203.20 393.11,202.10 386.60,201.60"/>
    </edge>
    <edge id=":rightC_6" function="internal">
        <lane id=":rightC_6_0" index="0" disallow="pedestrian" speed="10.30" length="24.19" shape="413.40,201.60 406.84,200.66 402.15,197.85 399.34,193.16 398.40,186.60"/>
    </edge>
    <edge id=":rightC_7" function="internal">
        <lane id=":rightC_7_0" index="0" disallow="pedestrian" speed="3.65" length="4.67" shape="413.40,201.60 412.20,200.80 411.80,200.00 412.20,199.20 413.40,198.40"/>
    </edge>
    <edge id=":rightC_8" function="internal">
        <lane id=":rightC_8_0" index="0" disallow="pedestrian" speed="8.59" length="14.49" shape="404.80,186.60 405.34,191.76 406.95,195.45 409.64,197.66 411.40,198.01"/>
    </edge>
    <edge id=":rightC_9" function="internal">
        <lane id=":rightC_9_0" index="0" disallow="pedestrian" speed="13.30" length="27.04" shape="404.80,186.60 404.30,195.07 403.20,201.31 402.10,206.89 401.60,213.40"/>
    </edge>
    <edge id=":rightC_10" function="internal">
        <lane id=":rightC_10_0" index="0" disallow="pedestrian" speed="10.30" length="9.94" shape="401.60,186.60 400.66,193.16 398.96,196.00"/>
    </edge>
    <edge id=":rightC_11" function="internal">
        <lane id=":rightC_11_0" index="0" disallow="pedestrian" speed="3.65" length="2.46" shape="401.60,186.60 400.80,187.80 400.00,188.20 399.89,188.14"/>
    </edge>
    <edge id=":rightC_19" function="internal">
        <lane id=":rightC_19_0" index="0" disallow="pedestrian" speed="8.59" length="2.04" shape="411.40,198.01 413.40,198.40"/>
    </edge>
    <edge id=":rightC_20" function="internal">
        <lane id=":rightC_20_0" index="0" disallow="pedestrian" speed="10.30" length="14.26" shape="398.96,196.00 397.85,197.85 393.16,200.66 386.60,201.60"/>
    </edge>
    <edge id=":rightC_21" function="internal">
        <lane id=":rightC_21_0" index="0" disallow="pedestrian" speed="3.65" length="2.21" shape="399.89,188.14 399.20,187.80 398.40,186.60"/>
    </edge>
    <edge id=":rightC_12" function="internal">
        <lane id=":rightC_12_0" index="0" disallow="pedestrian" speed="8.59" length="16.53" shape="386.60,195.20 391.76,194.66 395.45,193.05 397.66,190.36 398.40,186.60"/>
    </edge>
    <edge id=":rightC_13" function="internal">
        <lane id=":rightC_13_0" index="0" disallow="pedestrian" speed="13.30" length="27.04" shape="386.60,195.20 395.07,195.70 401.31,196.80 406.89,197.90 413.40,198.40"/>
    </edge>
    <edge id=":rightC_14" function="internal">
        <lane id=":rightC_14_0" index="0" disallow="pedestrian" speed="10.30" length="24.19" shape="386.60,198.40 393.16,199.34 397.85,202.15 400.66,206.84 401.60,213.40"/>
    </edge>
    <edge id=":rightC_15" function="internal">
        <lane id=":rightC_15_0" index="0" disallow="pedestrian" speed="3.65" length="4.67" shape="386.60,198.40 387.80,199.20 388.20,200.00 387.80,200.80 386.60,201.60"/>
    </edge>
    <edge id=":rightC_c0" function="crossing" crossingEdges="rightCN rightNC">
        <lane id=":rightC_c0_0" index="0" allow="pedestrian" speed="1.00" length="9.60" width="2.00" shape="403.20,212.40 393.60,212.40"/>
    </edge>
    <edge id=":rightC_c1" function="crossing" crossingEdges="rightCW rightWC">
        <lane id=":rightC_c1_0" index="0" allow="pedestrian" speed="1.00" length="9.60" width="2.00" shape="412.40,196.80 412.40,206.40"/>
    </edge>
    <edge id=":rightC_c2" function="crossing" crossingEdges="rightCS rightSC">
        <lane id=":rightC_c2_0" index="0" allow="pedestrian" speed="1.00" length="9.60" width="2.00" shape="396.80,187.60 406.40,187.60"/>
    </edge>
    <edge id=":rightC_c3" function="crossing" crossingEdges="rightCE rightEC">
        <lane id=":rightC_c3_0" index="0" allow="pedestrian" speed="1.00" length="9.60" width="2.00" shape="387.60,203.20 387.60,193.60"/>
    </edge>
    <edge id=":rightC_w0" function="walkingarea">
        <lane id=":rightC_w0_0" index="0" allow="pedestrian" speed="1.00" length="7.82" width="2.00" shape="386.60,203.20 386.60,205.20 391.60,213.40 393.60,213.40 393.41,210.28 392.82,207.73 391.85,205.75 390.49,204.33 388.74,203.48"/>
    </edge>
    <edge id=":rightC_w1" function="walkingarea">
        <lane id=":rightC_w1_0" index="0" allow="pedestrian" speed="1.00" length="7.82" width="2.00" shape="403.20,213.40 405.20,213.40 413.40,208.40 413.40,206.40 410.28,206.59 407.73,207.18 405.75,208.15 404.33,209.51 403.48,211.26"/>
    </edge>
    <edge id=":rightC_w2" function="walkingarea">
        <lane id=":rightC_w2_0" index="0" allow="pedestrian" speed="1.00" length="7.82" width="2.00" shape="413.40,196.80 413.40,194.80 408.40,186.60 406.40,186.60 406.59,189.72 407.18,192.27 408.15,194.25 409.51,195.67 411.26,196.52"/>
    </edge>
    <edge id=":rightC_w3" function="walkingarea">
        <lane id=":rightC_w3_0" index="0" allow="pedestrian" speed="1.00" length="7.82" width="2.00" shape="396.80,186.60 394.80,186.60 386.60,191.60 386.60,193.60 389.72,193.41 392.27,192.82 394.25,191.85 395.67,190.49 396.52,188.74"/>
    </edge>
    <edge id=":rightE1_0" function="internal">
        <lane id=":rightE1_0_0" index="0" disallow="pedestrian" speed="3.65" length="4.67" shape="200.00,201.60 198.80,200.80 198.40,200.00 198.80,199.20 200.00,198.40"/>
    </edge>
    <edge id=":rightE1_w0" function="walkingarea">
        <lane id=":rightE1_w0_0" index="0" allow="pedestrian" speed="1.00" length="8.40" width="2.00" shape="200.00,196.80 200.00,194.80 200.00,205.20 200.00,203.20"/>
    </edge>
    <edge id=":rightE2_0" function="internal">
        <lane id=":rightE2_0_0" index="0" disallow="pedestrian" speed="13.30" length="8.40" shape="346.00,198.40 348.46,197.90 350.00,196.80 351.54,195.70 354.00,195.20"/>
        <lane id=":rightE2_0_1" index="1" disallow="pedestrian" speed="13.30" length="8.40" shape="346.00,198.40 354.00,198.40"/>
    </edge>
    <edge id=":rightE2_w0" function="walkingarea">
        <lane id=":rightE2_w0_0" index="0" allow="pedestrian" speed="1.00" length="8.62" width="2.00" shape="354.00,193.60 354.00,191.60 346.00,194.80 346.00,196.80 347.79,196.56 349.03,195.97 350.00,195.20 350.97,194.43 352.21,193.84"/>
    </edge>
    <edge id=":rightN1_0" function="internal">
        <lane id=":rightN1_0_0" index="0" disallow="pedestrian" speed="3.65" length="4.67" shape="401.60,400.00 400.80,401.20 400.00,401.60 399.20,401.20 398.40,400.00"/>
    </edge>
    <edge id=":rightN1_w0" function="walkingarea">
        <lane id=":rightN1_w0_0" index="0" allow="pedestrian" speed="1.00" length="8.40" width="2.00" shape="396.80,400.00 394.80,400.00 405.20,400.00 403.20,400.00"/>
    </edge>
    <edge id=":rightN2_0" function="internal">
        <lane id=":rightN2_0_0" index="0" disallow="pedestrian" speed="13.30" length="8.40" shape="398.40,254.00 397.90,251.54 396.80,250.00 395.70,248.46 395.20,246.00"/>
        <lane id=":rightN2_0_1" index="1" disallow="pedestrian" speed="13.30" length="8.40" shape="398.40,254.00 398.40,246.00"/>
    </edge>
    <edge id=":rightN2_w0" function="walkingarea">
        <lane id=":rightN2_w0_0" index="0" allow="pedestrian" speed="1.00" length="8.62" width="2.00" shape="393.60,246.00 391.60,246.00 394.80,254.00 396.80,254.00 396.56,252.21 395.97,250.97 395.20,250.00 394.43,249.03 393.84,247.79"/>
    </edge>
    <edge id=":rightS1_0" function="internal">
        <lane id=":rightS1_0_0" index="0" disallow="pedestrian" speed="3.65" length="4.67" shape="398.40,0.00 399.20,-1.20 400.00,-1.60 400.80,-1.20 401.60,0.00"/>
    </edge>
    <edge id=":rightS1_w0" function="walkingarea">
        <lane id=":rightS1_w0_0" index="0" allow="pedestrian" speed="1.00" length="8.40" width="2.00" shape="403.20,0.00 405.20,0.00 394.80,0.00 396.80,0.00"/>
    </edge>
    <edge id=":rightS2_0" function="internal">
        <lane id=":rightS2_0_0" index="0" disallow="pedestrian" speed="13.30" length="8.40" shape="401.60,146.00 402.10,148.46 403.20,150.00 404.30,151.54 404.80,154.00"/>
        <lane id=":rightS2_0_1" index="1" disallow="pedestrian" speed="13.30" length="8.40" shape="401.60,146.00 401.60,154.00"/>
    </edge>
    <edge id=":rightS2_w0" function="walkingarea">
        <lane id=":rightS2_w0_0" index="0" allow="pedestrian" speed="1.00" length="8.62" width="2.00" shape="406.40,154.00 408.40,154.00 405.20,146.00 403.20,146.00 403.44,147.79 404.03,149.03 404.80,150.00 405.57,150.97 406.16,152.21"/>
    </edge>
    <edge id=":rightW1_0" function="internal">
        <lane id=":rightW1_0_0" index="0" disallow="pedestrian" speed="3.65" length="4.67" shape="600.00,198.40 601.20,199.20 601.60,200.00 601.20,200.80 600.00,201.60"/>
    </edge>
    <edge id=":rightW1_w0" function="walkingarea">
        <lane id=":rightW1_w0_0" index="0" allow="pedestrian" speed="1.00" length="8.40" width="2.00" shape="600.00,203.20 600.00,205.20 600.00,194.80 600.00,196.80"/>
    </edge>
    <edge id=":rightW2_0" function="internal">
        <lane id=":rightW2_0_0" index="0" disallow="pedestrian" speed="13.30" length="8.40" shape="454.00,201.60 451.54,202.10 450.00,203.20 448.46,204.30 446.00,204.80"/>
        <lane id=":rightW2_0_1" index="1" disallow="pedestrian" speed="13.30" length="8.40" shape="454.00,201.60 446.00,201.60"/>
    </edge>
    <edge id=":rightW2_w0" function="walkingarea">
        <lane id=":rightW2_w0_0" index="0" allow="pedestrian" speed="1.00" length="8.62" width="2.00" shape="446.00,206.40 446.00,208.40 454.00,205.20 454.00,203.20 452.21,203.44 450.97,204.03 450.00,204.80 449.03,205.57 447.79,206.16"/>
    </edge>

    <edge id="leftCE" from="leftC" to="leftE1" priority="-1" type="1L13.3">
        <lane id="leftCE_0" index="0" allow="pedestrian" speed="13.30" length="186.60" width="2.00" shape="-13.40,204.20 -200.00,204.20"/>
        <lane id="leftCE_1" index="1" disallow="pedestrian" speed="13.30" length="186.60" shape="-13.40,201.60 -200.00,201.60"/>
    </edge>
    <edge id="leftCN" from="leftC" to="leftN1" priority="-1" type="1L13.3">
        <lane id="leftCN_0" index="0" allow="pedestrian" speed="13.30" length="186.60" width="2.00" shape="4.20,213.40 4.20,400.00"/>
        <lane id="leftCN_1" index="1" disallow="pedestrian" speed="13.30" length="186.60" shape="1.60,213.40 1.60,400.00"/>
    </edge>
    <edge id="leftCS" from="leftC" to="leftS1" priority="-1" type="1L13.3">
        <lane id="leftCS_0" index="0" allow="pedestrian" speed="13.30" length="186.60" width="2.00" shape="-4.20,186.60 -4.20,0.00"/>
        <lane id="leftCS_1" index="1" disallow="pedestrian" speed="13.30" length="186.60" shape="-1.60,186.60 -1.60,0.00"/>
    </edge>
    <edge id="leftCW" from="leftC" to="leftW1" priority="-1" type="1L13.3">
        <lane id="leftCW_0" index="0" allow="pedestrian" speed="13.30" length="186.60" width="2.00" shape="13.40,195.80 200.00,195.80"/>
        <lane id="leftCW_1" index="1" disallow="pedestrian" speed="13.30" length="186.60" shape="13.40,198.40 200.00,198.40"/>
    </edge>
    <edge id="leftEC" from="leftE2" to="leftC" priority="-1" type="2L13.3">
        <lane id="leftEC_0" index="0" allow="pedestrian" speed="13.30" length="32.60" width="2.00" shape="-46.00,192.60 -13.40,192.60"/>
        <lane id="leftEC_1" index="1" disallow="pedestrian" speed="13.30" length="32.60" shape="-46.00,195.20 -13.40,195.20"/>
        <lane id="leftEC_2" index="2" disallow="pedestrian" speed="13.30" length="32.60" shape="-46.00,198.40 -13.40,198.40"/>
    </edge>
    <edge id="leftEE" from="leftE1" to="leftE2" priority="-1" type="1L13.3">
        <lane id="leftEE_0" index="0" allow="pedestrian" speed="13.30" length="146.00" width="2.00" shape="-200.00,195.80 -54.00,195.80"/>
        <lane id="leftEE_1" index="1" disallow="pedestrian" speed="13.30" length="146.00" shape="-200.00,198.40 -54.00,198.40"/>
    </edge>
    <edge id="leftNC" from="leftN2" to="leftC" priority="-1" type="2L13.3">
        <lane id="leftNC_0" index="0" allow="pedestrian" speed="13.30" length="32.60" width="2.00" shape="-7.40,246.00 -7.40,213.40"/>
        <lane id="leftNC_1" index="1" disallow="pedestrian" speed="13.30" length="32.60" shape="-4.80,246.00 -4.80,213.40"/>
        <lane id="leftNC_2" index="2" disallow="pedestrian" speed="13.30" length="32.60" shape="-1.60,246.00 -1.60,213.40"/>
    </edge>
    <edge id="leftNN" from="leftN1" to="leftN2" priority="-1" type="1L13.3">
        <lane id="leftNN_0" index="0" allow="pedestrian" speed="13.30" length="146.00" width="2.00" shape="-4.20,400.00 -4.20,254.00"/>
        <lane id="leftNN_1" index="1" disallow="pedestrian" speed="13.30" length="146.00" shape="-1.60,400.00 -1.60,254.00"/>
    </edge>
    <edge id="leftSC" from="leftS2" to="leftC" priority="-1" type="2L13.3">
        <lane id="leftSC_0" index="0" allow="pedestrian" speed="13.30" length="32.60" width="2.00" shape="7.40,154.00 7.40,186.60"/>
        <lane id="leftSC_1" index="1" disallow="pedestrian" speed="13.30" length="32.60" shape="4.80,154.00 4.80,186.60"/>
        <lane id="leftSC_2" index="2" disallow="pedestrian" speed="13.30" length="32.60" shape="1.60,154.00 1.60,186.60"/>
    </edge>
    <edge id="leftSS" from="leftS1" to="leftS2" priority="-1" type="1L13.3">
        <lane id="leftSS_0" index="0" allow="pedestrian" speed="13.30" length="146.00" width="2.00" shape="4.20,0.00 4.20,146.00"/>
        <lane id="leftSS_1" index="1" disallow="pedestrian" speed="13.30" length="146.00" shape="1.60,0.00 1.60,146.00"/>
    </edge>
    <edge id="leftWC" from="leftW2" to="leftC" priority="-1" type="2L13.3">
        <lane id="leftWC_0" index="0" allow="pedestrian" speed="13.30" length="32.60" width="2.00" shape="46.00,207.40 13.40,207.40"/>
        <lane id="leftWC_1" index="1" disallow="pedestrian" speed="13.30" length="32.60" shape="46.00,204.80 13.40,204.80"/>
        <lane id="leftWC_2" index="2" disallow="pedestrian" speed="13.30" length="32.60" shape="46.00,201.60 13.40,201.60"/>
    </edge>
    <edge id="leftWW" from="leftW1" to="leftW2" priority="-1" type="1L13.3">
        <lane id="leftWW_0" index="0" allow="pedestrian" speed="13.30" length="146.00" width="2.00" shape="200.00,204.20 54.00,204.20"/>
        <lane id="leftWW_1" index="1" disallow="pedestrian" speed="13.30" length="146.00" shape="200.00,201.60 54.00,201.60"/>
    </edge>
    <edge id="rightCE" from="rightC" to="rightE1" priority="-1" type="1L13.3">
        <lane id="rightCE_0" index="0" allow="pedestrian" speed="13.30" length="186.60" width="2.00" shape="386.60,204.20 200.00,204.20"/>
        <lane id="rightCE_1" index="1" disallow="pedestrian" speed="13.30" length="186.60" shape="386.60,201.60 200.00,201.60"/>
    </edge>
    <edge id="rightCN" from="rightC" to="rightN1" priority="-1" type="1L13.3">
        <lane id="rightCN_0" index="0" allow="pedestrian" speed="13.30" length="186.60" width="2.00" shape="404.20,213.40 404.20,400.00"/>
        <lane id="rightCN_1" index="1" disallow="pedestrian" speed="13.30" length="186.60" shape="401.60,213.40 401.60,400.00"/>
    </edge>
    <edge id="rightCS" from="rightC" to="rightS1" priority="-1" type="1L13.3">
        <lane id="rightCS_0" index="0" allow="pedestrian" speed="13.30" length="186.60" width="2.00" shape="395.80,186.60 395.80,0.00"/>
        <lane id="rightCS_1" index="1" disallow="pedestrian" speed="13.30" length="186.60" shape="398.40,186.60 398.40,0.00"/>
    </edge>
    <edge id="rightCW" from="rightC" to="rightW1" priority="-1" type="1L13.3">