<additional>
    <tlLogic id="leftC" programID="0" offset="-10.70"/>
    <tlLogic id="rightC" programID="1" offset="0.00"/>
</additional>
