<?xml version="1.0" encoding="UTF-8"?>

<!-- generated on Mon Oct 11 20:01:09 2021 by Eclipse SUMO duarouter Version v1_7_0+1095-7111e26d53
<configuration xmlns:xsi="http://www.w3.org/2001/XMLSchema-instance" xsi:noNamespaceSchemaLocation="http://sumo.dlr.de/xsd/duarouterConfiguration.xsd">

    <input>
        <net-file value="network3_double.net.xml"/>
        <route-files value="trips.trips.xml"/>
    </input>

    <output>
        <output-file value="trips.trips.xml.tmp"/>
        <write-trips value="true"/>
    </output>

    <time>
        <begin value="0"/>
        <end value="3600"/>
    </time>

    <report>
        <no-warnings value="true"/>
        <ignore-errors value="true"/>
        <no-step-log value="true"/>
    </report>

</configuration>
-->

<routes xmlns:xsi="http://www.w3.org/2001/XMLSchema-instance" xsi:noNamespaceSchemaLocation="http://sumo.dlr.de/xsd/routes_file.xsd">
    <trip id="0" depart="0.00" from="rightEE" to="leftCE"/>
    <trip id="1" depart="10.00" from="leftNN" to="leftEC"/>
    <trip id="2" depart="20.00" from="rightNN" to="rightCW"/>
    <trip id="3" depart="30.00" from="rightWC" to="leftCN"/>
    <trip id="4" depart="40.00" from="leftWC" to="leftCE"/>
    <trip id="5" depart="50.00" from="leftNC" to="rightCE"/>
    <trip id="6" depart="60.00" from="leftCW" to="leftCW"/>
    <trip id="7" depart="70.00" from="rightEE" to="rightCE"/>
    <trip id="8" depart="80.00" from="leftNC" to="rightCN"/>
    <trip id="9" depart="90.00" from="rightSC" to="leftCE"/>
    <trip id="10" depart="100.00" from="rightSC" to="rightCW"/>
    <trip id="11" depart="110.00" from="leftSS" to="leftCS"/>
    <trip id="12" depart="120.00" from="rightWW" to="leftSC"/>
    <trip id="13" depart="130.00" from="leftEC" to="leftCN"/>
    <trip id="14" depart="140.00" from="rightSS" to="rightCN"/>
    <trip id="15" depart="150.00" from="rightSC" to="rightEC"/>
    <trip id="16" depart="160.00" from="rightCE" to="rightWC"/>
    <trip id="17" depart="170.00" from="leftSS" to="rightCE"/>
    <trip id="18" depart="180.00" from="rightSC" to="rightCS"/>
    <trip id="19" depart="190.00" from="rightSS" to="rightCN"/>
    <trip id="20" depart="200.00" from="rightNC" to="leftCE"/>
    <trip id="21" depart="210.00" from="leftNN" to="leftNC"/>
    <trip id="22" depart="220.00" from="leftEC" to="leftEC"/>
    <trip id="23" depart="230.00" from="leftEC" to="leftNC"/>
    <trip id="24" depart="240.00" from="rightEE" to="leftSC"/>
    <trip id="25" depart="250.00" from="leftSS" to="leftCW"/>
    <trip id="26" depart="260.00" from="leftNN" to="rightSC"/>
    <trip id="27" depart="270.00" from="rightEE" to="rightCN"/>
    <trip id="28" depart="280.00" from="leftNC" to="rightEC"/>
    <trip id="29" depart="290.00" from="leftEE" to="leftSC"/>
    <trip id="30" depart="300.00" from="rightWW" to="rightCS"/>
    <trip id="31" depart="310.00" from="rightEC" to="rightCW"/>
    <trip id="32" depart="320.00" from="rightSS" to="rightEC"/>
    <trip id="33" depart="330.00" from="leftNN" to="leftCE"/>
    <trip id="34" depart="340.00" from="leftSC" to="leftEC"/>
    <trip id="35" depart="350.00" from="leftNC" to="rightSC"/>
    <trip id="36" depart="360.00" from="rightSS" to="leftNC"/>
    <trip id="37" depart="370.00" from="rightEE" to="leftWC"/>
    <trip id="38" depart="380.00" from="rightWC" to="leftWW"/>
    <trip id="39" depart="390.00" from="leftNN" to="leftEC"/>
    <trip id="40" depart="400.00" from="rightEC" to="leftEC"/>
    <trip id="41" depart="410.00" from="rightEC" to="rightSC"/>
    <trip id="42" depart="420.00" from="leftWC" to="leftCW"/>
    <trip id="43" depart="430.00" from="rightWW" to="rightCE"/>
    <trip id="44" depart="440.00" from="leftEC" to="leftCE"/>
    <trip id="45" depart="450.00" from="leftEC" to="rightCS"/>
    <trip id="46" depart="460.00" from="rightSC" to="leftWC"/>
    <trip id="47" depart="470.00" from="leftEC" to="leftSC"/>
    <trip id="48" depart="480.00" from="rightWW" to="rightCE"/>
    <trip id="49" depart="490.00" from="rightWW" to="rightNC"/>
    <trip id="50" depart="500.00" from="leftCW" to="rightCW"/>
    <trip id="51" depart="510.00" from="rightNC" to="rightCE"/>
    <trip id="52" depart="520.00" from="leftNN" to="rightCS"/>
    <trip id="53" depart="530.00" from="leftEE" to="leftWC"/>
    <trip id="54" depart="540.00" from="leftWW" to="rightWC"/>
    <trip id="55" depart="550.00" from="rightSS" to="leftEC"/>
    <trip id="56" depart="560.00" from="rightCE" to="leftCW"/>
    <trip id="57" depart="570.00" from="rightWC" to="rightNC"/>
    <trip id="58" depart="580.00" from="leftSC" to="rightCS"/>
    <trip id="59" depart="590.00" from="rightEC" to="leftCS"/>
    <trip id="60" depart="600.00" from="rightNN" to="rightCE"/>
    <trip id="61" depart="610.00" from="rightSC" to="rightCE"/>
    <trip id="62" depart="620.00" from="leftCW" to="leftNC"/>
    <trip id="63" depart="630.00" from="leftCW" to="rightSC"/>
    <trip id="64" depart="640.00" from="rightSS" to="rightEE"/>
    <trip id="65" depart="650.00" from="leftSC" to="leftCN"/>
    <trip id="66" depart="660.00" from="rightSS" to="rightWC"/>
    <trip id="67" depart="670.00" from="leftEC" to="leftWW"/>
    <trip id="68" depart="680.00" from="leftEC" to="rightEC"/>
    <trip id="69" depart="690.00" from="rightNN" to="leftCS"/>
    <trip id="70" depart="700.00" from="leftWW" to="rightCE"/>
    <trip id="71" depart="710.00" from="leftNN" to="rightNC"/>
    <trip id="72" depart="720.00" from="leftWC" to="leftCW"/>
    <trip id="73" depart="730.00" from="rightCE" to="rightEC"/>
    <trip id="74" depart="740.00" from="leftNC" to="leftNC"/>
    <trip id="75" depart="750.00" from="rightWW" to="rightCS"/>
    <trip id="76" depart="760.00" from="leftWC" to="rightCE"/>
    <trip id="77" depart="770.00" from="leftEE" to="leftEC"/>
    <trip id="78" depart="780.00" from="leftSS" to="rightCN"/>
    <trip id="79" depart="790.00" from="leftNN" to="leftCW"/>
    <trip id="80" depart="800.00" from="leftEC" to="rightCS"/>
    <trip id="81" depart="810.00" from="leftNN" to="rightSC"/>
    <trip id="82" depart="820.00" from="rightSS" to="leftCN"/>
    <trip id="83" depart="830.00" from="leftNN" to="rightCW"/>
    <trip id="84" depart="840.00" from="leftNC" to="leftCS"/>
    <trip id="85" depart="850.00" from="rightWC" to="rightCN"/>
    <trip id="86" depart="860.00" from="leftWW" to="rightEE"/>
    <trip id="87" depart="870.00" from="rightSC" to="leftCW"/>
    <trip id="88" depart="880.00" from="leftEC" to="leftWC"/>
    <trip id="89" depart="890.00" from="leftWC" to="leftWW"/>
    <trip id="90" depart="900.00" from="rightNN" to="rightCW"/>
    <trip id="91" depart="910.00" from="rightWW" to="leftCN"/>
    <trip id="92" depart="920.00" from="leftWC" to="leftSC"/>
    <trip id="93" depart="930.00" from="rightSS" to="leftEC"/>
    <trip id="94" depart="940.00" from="leftNC" to="leftWW"/>
    <trip id="95" depart="950.00" from="leftWC" to="leftNC"/>
    <trip id="96" depart="960.00" from="leftNN" to="rightSC"/>
    <trip id="97" depart="970.00" from="leftWC" to="rightNC"/>
    <trip id="98" depart="980.00" from="rightCE" to="leftCE"/>
    <trip id="99" depart="990.00" from="rightWW" to="rightNC"/>
    <trip id="100" depart="1000.00" from="rightWW" to="rightSC"/>
    <trip id="101" depart="1010.00" from="rightSS" to="leftCS"/>
    <trip id="102" depart="1020.00" from="leftWW" to="leftCW"/>
    <trip id="103" depart="1030.00" from="leftWC" to="leftCN"/>
    <trip id="104" depart="1040.00" from="leftSS" to="rightWC"/>
    <trip id="105" depart="1050.00" from="leftNN" to="rightEE"/>
    <trip id="106" depart="1060.00" from="leftWW" to="leftWC"/>
    <trip id="107" depart="1070.00" from="rightWW" to="rightWC"/>
    <trip id="108" depart="1080.00" from="rightEC" to="rightCW"/>
    <trip id="109" depart="1090.00" from="leftEE" to="leftNC"/>
    <trip id="110" depart="1100.00" from="rightWW" to="rightCN"/>
    <trip id="111" depart="1110.00" from="rightCE" to="rightEC"/>
    <trip id="112" depart="1120.00" from="leftEC" to="rightCN"/>
    <trip id="113" depart="1130.00" from="rightCE" to="rightNC"/>
    <trip id="114" depart="1140.00" from="leftEE" to="rightWC"/>
    <trip id="115" depart="1150.00" from="leftEC" to="leftCW"/>
    <trip id="116" depart="1160.00" from="rightEC" to="rightCW"/>
    <trip id="117" depart="1170.00" from="leftNN" to="leftCS"/>
    <trip id="118" depart="1180.00" from="rightWC" to="leftEC"/>
    <trip id="119" depart="1190.00" from="rightEC" to="rightCS"/>
    <trip id="120" depart="1200.00" from="leftWC" to="rightCN"/>
    <trip id="121" depart="1210.00" from="rightCE" to="rightSC"/>
    <trip id="122" depart="1220.00" from="leftNC" to="rightCW"/>
    <trip id="123" depart="1230.00" from="leftNN" to="leftWC"/>
    <trip id="124" depart="1240.00" from="rightNC" to="leftNC"/>
    <trip id="125" depart="1250.00" from="leftSC" to="rightEC"/>
    <trip id="126" depart="1260.00" from="leftEC" to="leftWW"/>
    <trip id="127" depart="1270.00" from="rightWW" to="rightWC"/>
    <trip id="128" depart="1280.00" from="leftEC" to="leftCW"/>
    <trip id="129" depart="1290.00" from="leftNN" to="rightSC"/>
    <trip id="130" depart="1300.00" from="rightSS" to="rightNC"/>
    <trip id="131" depart="1310.00" from="leftSS" to="leftCS"/>
    <trip id="132" depart="1320.00" from="rightSS" to="rightCW"/>
    <trip id="133" depart="1330.00" from="rightEE" to="rightWC"/>
    <trip id="134" depart="1340.00" from="rightEE" to="leftCE"/>
    <trip id="135" depart="1350.00" from="rightSC" to="leftNC"/>
    <trip id="136" depart="1360.00" from="rightEE" to="rightSC"/>
    <trip id="137" depart="1370.00" from="leftEE" to="leftCS"/>
    <trip id="138" depart="1380.00" from="leftEC" to="rightCE"/>
    <trip id="139" depart="1390.00" from="leftNN" to="rightCN"/>
    <trip id="140" depart="1400.00" from="rightNC" to="leftCW"/>
    <trip id="141" depart="1410.00" from="rightEE" to="leftEC"/>
    <trip id="142" depart="1420.00" from="leftWW" to="rightSC"/>
    <trip id="143" depart="1430.00" from="rightSS" to="leftCN"/>
    <trip id="144" depart="1440.00" from="leftWC" to="leftEC"/>
    <trip id="145" depart="1450.00" from="leftCW" to="rightEC"/>
    <trip id="146" depart="1460.00" from="rightEE" to="leftEC"/>
    <trip id="147" depart="1470.00" from="rightNN" to="rightCE"/>
    <trip id="148" depart="1480.00" from="leftWC" to="leftCE"/>
    <trip id="149" depart="1490.00" from="leftEC" to="rightNC"/>
    <trip id="150" depart="1500.00" from="rightWC" to="rightCE"/>
    <trip id="151" depart="1510.00" from="rightSS" to="rightCN"/>
    <trip id="152" depart="1520.00" from="leftEE" to="leftCS"/>
    <trip id="153" depart="1530.00" from="leftSC" to="rightSC"/>
    <trip id="154" depart="1540.00" from="rightSC" to="rightNC"/>
    <trip id="155" depart="1550.00" from="rightWC" to="leftCW"/>
    <trip id="156" depart="1560.00" from="leftNN" to="leftCN"/>
    <trip id="157" depart="1570.00" from="rightSC" to="rightNC"/>
    <trip id="158" depart="1580.00" from="leftWC" to="rightCS"/>
    <trip id="159" depart="1590.00" from="leftEE" to="rightSC"/>
    <trip id="160" depart="1600.00" from="rightSS" to="rightWC"/>
    <trip id="161" depart="1610.00" from="rightSC" to="rightNC"/>
    <trip id="162" depart="1620.00" from="leftCW" to="rightEC"/>
    <trip id="163" depart="1630.00" from="leftSC" to="rightSC"/>
    <trip id="164" depart="1640.00" from="rightSC" to="rightNC"/>
    <trip id="165" depart="1650.00" from="rightSC" to="leftEC"/>
    <trip id="166" depart="1660.00" from="rightSC" to="leftCN"/>
    <trip id="167" depart="1670.00" from="rightSS" to="rightNC"/>
    <trip id="168" depart="1680.00" from="leftNN" to="rightEE"/>
    <trip id="169" depart="1690.00" from="leftWW" to="leftNC"/>
    <trip id="170" depart="1700.00" from="rightSC" to="leftEC"/>
    <trip id="171" depart="1710.00" from="leftCW" to="leftCW"/>
    <trip id="172" depart="1720.00" from="leftSC" to="rightNC"/>
    <trip id="173" depart="1730.00" from="rightWW" to="leftNC"/>
    <trip id="174" depart="1740.00" from="rightEE" to="leftWC"/>
    <trip id="175" depart="1750.00" from="rightWW" to="rightCE"/>
    <trip id="176" depart="1760.00" from="rightWC" to="leftCS"/>
    <trip id="177" depart="1770.00" from="rightWW" to="leftCW"/>
    <trip id="178" depart="1780.00" from="rightWW" to="leftEC"/>
    <trip id="179" depart="1790.00" from="leftEC" to="leftWC"/>
    <trip id="180" depart="1800.00" from="rightNN" to="leftNC"/>
    <trip id="181" depart="1810.00" from="rightEC" to="rightCE"/>
    <trip id="182" depart="1820.00" from="leftSS" to="rightCN"/>
    <trip id="183" depart="1830.00" from="leftNN" to="rightCW"/>
    <trip id="184" depart="1840.00" from="leftCW" to="rightSC"/>
    <trip id="185" depart="1850.00" from="rightCE" to="rightCW"/>
    <trip id="186" depart="1860.00" from="rightNN" to="rightCW"/>
    <trip id="187" depart="1870.00" from="leftSS" to="leftCN"/>
    <trip id="188" depart="1880.00" from="rightEE" to="leftNC"/>
    <trip id="189" depart="1890.00" from="leftSC" to="rightNC"/>
    <trip id="190" depart="1900.00" from="rightNC" to="leftNC"/>
    <trip id="191" depart="1910.00" from="leftSC" to="leftWC"/>
    <trip id="192" depart="1920.00" from="leftWC" to="leftNC"/>
    <trip id="193" depart="1930.00" from="leftEE" to="leftWC"/>
    <trip id="194" depart="1940.00" from="rightWC" to="rightCW"/>
    <trip id="195" depart="1950.00" from="rightWC" to="rightCS"/>
    <trip id="196" depart="1960.00" from="leftSC" to="rightCE"/>
    <trip id="197" depart="1970.00" from="leftCW" to="leftNC"/>
    <trip id="198" depart="1980.00" from="leftWC" to="rightCN"/>
    <trip id="199" depart="1990.00" from="rightEE" to="leftWW"/>
    <trip id="200" depart="2000.00" from="leftWC" to="leftCW"/>
    <trip id="201" depart="2010.00" from="leftWW" to="rightSC"/>
    <trip id="202" depart="2020.00" from="rightSC" to="leftCW"/>
    <trip id="203" depart="2030.00" from="leftEC" to="rightCE"/>
    <trip id="204" depart="2040.00" from="rightEE" to="leftSC"/>
    <trip id="205" depart="2050.00" from="rightSC" to="rightEC"/>
    <trip id="206" depart="2060.00" from="rightNC" to="leftEC"/>
    <trip id="207" depart="2070.00" from="leftNC" to="leftCE"/>
    <trip id="208" depart="2080.00" from="leftNN" to="leftWW"/>
    <trip id="209" depart="2090.00" from="rightSS" to="leftCN"/>
    <trip id="210" depart="2100.00" from="leftWC" to="rightCS"/>
    <trip id="211" depart="2110.00" from="leftNC" to="rightCW"/>
    <trip id="212" depart="2120.00" from="leftWW" to="leftEC"/>
    <trip id="213" depart="2130.00" from="rightEE" to="leftCE"/>
    <trip id="214" depart="2140.00" from="rightNN" to="rightEC"/>
    <trip id="215" depart="2150.00" from="leftEC" to="leftWC"/>
    <trip id="216" depart="2160.00" from="leftNC" to="rightWC"/>
    <trip id="217" depart="2170.00" from="rightCE" to="leftCE"/>
    <trip id="218" depart="2180.00" from="leftNN" to="rightNC"/>
    <trip id="219" depart="2190.00" from="leftWW" to="rightEE"/>
    <trip id="220" depart="2200.00" from="rightNC" to="rightWC"/>
    <trip id="221" depart="2210.00" from="rightEC" to="rightWC"/>
    <trip id="222" depart="2220.00" from="rightWC" to="rightCS"/>
    <trip id="223" depart="2230.00" from="rightNC" to="rightCE"/>
    <trip id="224" depart="2240.00" from="rightSC" to="rightCE"/>
    <trip id="225" depart="2250.00" from="rightWC" to="rightEC"/>
    <trip id="226" depart="2260.00" from="leftWW" to="leftEC"/>
    <trip id="227" depart="2270.00" from="leftNN" to="rightCS"/>
    <trip id="228" depart="2280.00" from="rightNN" to="rightCE"/>
    <trip id="229" depart="2290.00" from="rightEE" to="leftEC"/>
    <trip id="230" depart="2300.00" from="leftEC" to="leftNC"/>
    <trip id="231" depart="2310.00" from="leftNN" to="leftNC"/>
    <trip id="232" depart="2320.00" from="rightCE" to="leftCS"/>
    <trip id="233" depart="2330.00" from="leftNN" to="rightCW"/>
    <trip id="234" depart="2340.00" from="rightNC" to="leftCN"/>
    <trip id="235" depart="2350.00" from="leftWC" to="rightCE"/>
    <trip id="236" depart="2360.00" from="leftWC" to="leftCW"/>
    <trip id="237" depart="2370.00" from="leftWC" to="rightSC"/>
    <trip id="238" depart="2380.00" from="rightEC" to="rightCW"/>
    <trip id="239" depart="2390.00" from="rightSS" to="rightEC"/>
    <trip id="240" depart="2400.00" from="leftSS" to="leftCE"/>
    <trip id="241" depart="2410.00" from="leftSS" to="rightEC"/>
    <trip id="242" depart="2420.00" from="rightSS" to="rightWC"/>
    <trip id="243" depart="2430.00" from="leftWC" to="rightEC"/>
    <trip id="244" depart="2440.00" from="rightCE" to="rightCN"/>
    <trip id="245" depart="2450.00" from="leftNC" to="leftCW"/>
    <trip id="246" depart="2460.00" from="leftWC" to="leftCE"/>
    <trip id="247" depart="2470.00" from="leftSS" to="rightCW"/>
    <trip id="248" depart="2480.00" from="leftWC" to="leftCS"/>
    <trip id="249" depart="2490.00" from="leftWW" to="leftCS"/>
    <trip id="250" depart="2500.00" from="rightEE" to="leftCE"/>
    <trip id="251" depart="2510.00" from="leftWC" to="rightCN"/>
    <trip id="252" depart="2520.00" from="leftCW" to="rightCS"/>
    <trip id="253" depart="2530.00" from="leftEE" to="leftWW"/>
    <trip id="254" depart="2540.00" from="leftCW" to="leftSC"/>
    <trip id="255" depart="2550.00" from="leftNC" to="leftNC"/>
    <trip id="256" depart="2560.00" from="rightNN" to="leftSC"/>
    <trip id="257" depart="2570.00" from="rightNN" to="rightEE"/>
    <trip id="258" depart="2580.00" from="leftNN" to="leftCN"/>
    <trip id="259" depart="2590.00" from="leftCW" to="rightCE"/>
    <trip id="260" depart="2600.00" from="rightWW" to="leftSC"/>
    <trip id="261" depart="2610.00" from="rightEE" to="rightEE"/>
    <trip id="262" depart="2620.00" from="rightEE" to="rightEC"/>
    <trip id="263" depart="2630.00" from="rightWW" to="leftCW"/>
    <trip id="264" depart="2640.00" from="leftCW" to="leftCS"/>
    <trip id="265" depart="2650.00" from="leftEE" to="rightCW"/>
    <trip id="266" depart="2660.00" from="rightEC" to="leftCW"/>
    <trip id="267" depart="2670.00" from="rightNC" to="rightEC"/>
    <trip id="268" depart="2680.00" from="leftNC" to="rightCN"/>
    <trip id="269" depart="2690.00" from="rightNN" to="leftCS"/>
    <trip id="270" depart="2700.00" from="rightSC" to="rightWC"/>
    <trip id="271" depart="2710.00" from="leftEC" to="leftCE"/>
    <trip id="272" depart="2720.00" from="leftSC" to="rightCW"/>
    <trip id="273" depart="2730.00" from="rightWW" to="leftWC"/>
    <trip id="274" depart="2740.00" from="rightNC" to="leftCN"/>
    <trip id="275" depart="2750.00" from="rightNC" to="rightCS"/>
    <trip id="276" depart="2760.00" from="leftEC" to="rightEC"/>
    <trip id="277" depart="2770.00" from="rightSS" to="rightCN"/>
    <trip id="278" depart="2780.00" from="leftEE" to="rightWC"/>
    <trip id="279" depart="2790.00" from="rightSC" to="leftSC"/>
    <trip id="280" depart="2800.00" from="leftWC" to="leftSC"/>
    <trip id="281" depart="2810.00" from="rightCE" to="leftSC"/>
    <trip id="282" depart="2820.00" from="rightSS" to="rightEE"/>
    <trip id="283" depart="2830.00" from="leftEC" to="rightWC"/>
    <trip id="284" depart="2840.00" from="rightEE" to="rightEE"/>
    <trip id="285" depart="2850.00" from="rightNC" to="leftWC"/>
    <trip id="286" depart="2860.00" from="rightNN" to="rightWC"/>
    <trip id="287" depart="2870.00" from="leftNN" to="rightEE"/>
    <trip id="288" depart="2880.00" from="rightCE" to="leftWW"/>
    <trip id="289" depart="2890.00" from="leftWC" to="rightEC"/>
    <trip id="290" depart="2900.00" from="leftNN" to="rightNC"/>
    <trip id="291" depart="2910.00" from="rightSC" to="leftCN"/>
    <trip id="292" depart="2920.00" from="rightSS" to="leftEC"/>
    <trip id="293" depart="2930.00" from="leftWW" to="rightCN"/>
    <trip id="294" depart="2940.00" from="leftSS" to="leftCE"/>
    <trip id="295" depart="2950.00" from="rightSS" to="leftCW"/>
    <trip id="296" depart="2960.00" from="leftNC" to="rightEE"/>
    <trip id="297" depart="2970.00" from="leftSS" to="rightNC"/>
    <trip id="298" depart="2980.00" from="rightNC" to="leftEC"/>
    <trip id="299" depart="2990.00" from="leftCW" to="rightWC"/>
    <trip id="300" depart="3000.00" from="leftEC" to="rightCW"/>
    <trip id="301" depart="3010.00" from="leftWW" to="rightEC"/>
    <trip id="302" depart="3020.00" from="rightNC" to="rightCS"/>
    <trip id="303" depart="3030.00" from="leftWW" to="rightEE"/>
    <trip id="304" depart="3040.00" from="leftEC" to="leftCW"/>
    <trip id="305" depart="3050.00" from="rightNC" to="leftNC"/>
    <trip id="306" depart="3060.00" from="rightEC" to="leftWW"/>
    <trip id="307" depart="3070.00" from="rightCE" to="leftWC"/>
    <trip id="308" depart="3080.00" from="rightNN" to="leftNC"/>
    <trip id="309" depart="3090.00" from="rightNC" to="leftEC"/>
    <trip id="310" depart="3100.00" from="leftNN" to="leftCS"/>
    <trip id="311" depart="3110.00" from="leftNC" to="leftCS"/>
    <trip id="312" depart="3120.00" from="rightCE" to="rightEC"/>
    <trip id="313" depart="3130.00" from="leftNC" to="leftCW"/>
    <trip id="314" depart="3140.00" from="leftWW" to="rightEC"/>
    <trip id="315" depart="3150.00" from="rightWW" to="rightCE"/>
    <trip id="316" depart="3160.00" from="leftSC" to="leftCN"/>
    <trip id="317" depart="3170.00" from="leftNC" to="leftEC"/>
    <trip id="318" depart="3180.00" from="leftNC" to="leftCE"/>
    <trip id="319" depart="3190.00" from="rightCE" to="leftEC"/>
    <trip id="320" depart="3200.00" from="rightWW" to="rightCE"/>
    <trip id="321" depart="3210.00" from="rightNC" to="leftCS"/>
    <trip id="322" depart="3220.00" from="rightSS" to="leftWW"/>
    <trip id="323" depart="3230.00" from="rightSS" to="rightCN"/>
    <trip id="324" depart="3240.00" from="leftWW" to="leftWC"/>
    <trip id="325" depart="3250.00" from="leftNC" to="leftCE"/>
    <trip id="326" depart="3260.00" from="rightWC" to="leftWW"/>
    <trip id="327" depart="3270.00" from="rightSC" to="leftWC"/>
    <trip id="328" depart="3280.00" from="leftEC" to="rightCS"/>
    <trip id="329" depart="3290.00" from="leftCW" to="leftCS"/>
    <trip id="330" depart="3300.00" from="rightEC" to="leftNC"/>
    <trip id="331" depart="3310.00" from="rightWW" to="leftCS"/>
    <trip id="332" depart="3320.00" from="rightNN" to="rightCN"/>
    <trip id="333" depart="3330.00" from="rightSC" to="leftEC"/>
    <trip id="334" depart="3340.00" from="rightCE" to="leftWW"/>
    <trip id="335" depart="3350.00" from="leftWC" to="rightNC"/>
    <trip id="336" depart="3360.00" from="rightWW" to="leftNC"/>
    <trip id="337" depart="3370.00" from="rightEE" to="rightCN"/>
    <trip id="338" depart="3380.00" from="rightNN" to="rightWC"/>
    <trip id="339" depart="3390.00" from="leftNC" to="leftCW"/>
    <trip id="340" depart="3400.00" from="rightEE" to="leftCS"/>
    <trip id="341" depart="3410.00" from="leftNC" to="leftCN"/>
    <trip id="342" depart="3420.00" from="leftCW" to="leftWW"/>
    <trip id="343" depart="3430.00" from="rightEC" to="leftNC"/>
    <trip id="344" depart="3440.00" from="leftNN" to="rightCW"/>
    <trip id="345" depart="3450.00" from="rightNC" to="leftWW"/>
    <trip id="346" depart="3460.00" from="rightNC" to="rightSC"/>
    <trip id="347" depart="3470.00" from="rightSC" to="rightCS"/>
    <trip id="348" depart="3480.00" from="rightEE" to="rightSC"/>
    <trip id="349" depart="3490.00" from="leftWC" to="rightCE"/>
    <trip id="350" depart="3500.00" from="rightEE" to="rightSC"/>
    <trip id="351" depart="3510.00" from="rightSC" to="leftCN"/>
    <trip id="352" depart="3520.00" from="leftEE" to="leftNC"/>
    <trip id="353" depart="3530.00" from="rightNN" to="rightCN"/>
    <trip id="354" depart="3540.00" from="leftSC" to="leftCS"/>
    <trip id="355" depart="3550.00" from="rightNC" to="rightCW"/>
    <trip id="356" depart="3560.00" from="rightWC" to="rightCE"/>
    <trip id="357" depart="3570.00" from="leftWW" to="leftCN"/>
    <trip id="358" depart="3580.00" from="leftCW" to="leftWC"/>
    <trip id="359" depart="3590.00" from="leftSC" to="leftEC"/>
</routes>
